MODEL 1
REMARK VINA RESULT:      -8.8      0.000      0.000
REMARK  6 active torsions:
REMARK  status: ('A' for Active; 'I' for Inactive)
REMARK    1  A    between atoms: C6A_1  and  C1A_2 
REMARK    2  A    between atoms: C3A_4  and  N7A_5 
REMARK    3  A    between atoms: N7A_5  and  C8A_6 
REMARK    4  A    between atoms: C5A_7  and  C4_9 
REMARK    5  A    between atoms: N7_15  and  C1B_16 
REMARK    6  A    between atoms: C4B_21  and  O7B_22 
ROOT
ATOM      1  C4  CK6 d           0.281   5.261  26.604  0.00  0.00     0.096 A 
ATOM      2  C5  CK6 d          -0.128   3.973  26.976  0.00  0.00    -0.036 A 
ATOM      3  N3  CK6 d           1.394   5.828  27.125  0.00  0.00    -0.061 NA
ATOM      4  C2  CK6 d           2.157   5.161  28.042  0.00  0.00     0.727 A 
ATOM      5  N1  CK6 d           1.839   3.896  28.467  0.00  0.00    -0.075 NA
ATOM      6  C6  CK6 d           0.705   3.355  27.911  0.00  0.00     0.023 A 
ATOM      7  N7  CK6 d           3.253   5.727  28.564  0.00  0.00    -0.188 N 
ATOM      8  H8  CK6 d          -1.014   3.498  26.572  0.00  0.00     0.089 H 
ATOM      9  H9  CK6 d           0.431   2.355  28.228  0.00  0.00     0.115 H 
ATOM     10  H10 CK6 d           3.754   5.151  29.255  0.00  0.00     0.184 HD
ENDROOT
BRANCH   1  11
ATOM     11  C5A CK6 d          -0.488   6.077  25.625  0.00  0.00     0.062 A 
ATOM     12  C1A CK6 d          -1.811   6.221  25.326  0.00  0.00     0.053 A 
ATOM     13  N2A CK6 d          -1.997   7.125  24.341  0.00  0.00    -0.228 NA
ATOM     14  C3A CK6 d          -0.960   7.715  23.831  0.00  0.00     0.167 A 
ATOM     15  S4A CK6 d           0.515   7.158  24.592  0.00  0.00    -0.048 SA
BRANCH  12  16
ATOM     16  C6A CK6 d          -3.060   5.592  25.870  0.00  0.00    -0.034 C 
ATOM     17  H1  CK6 d          -3.819   6.370  26.039  0.00  0.00     0.035 H 
ATOM     18  H2  CK6 d          -2.831   5.089  26.822  0.00  0.00     0.035 H 
ATOM     19  H3  CK6 d          -3.443   4.855  25.150  0.00  0.00     0.035 H 
ENDBRANCH  12  16
BRANCH  14  20
ATOM     20  N7A CK6 d          -1.097   8.612  22.863  0.00  0.00    -0.373 N 
ATOM     21  H4  CK6 d          -0.468   9.427  22.896  0.00  0.00     0.161 HD
BRANCH  20  22
ATOM     22  C8A CK6 d          -2.049   8.562  21.751  0.00  0.00    -0.019 C 
ATOM     23  H5  CK6 d          -2.008   9.507  21.190  0.00  0.00     0.056 H 
ATOM     24  H6  CK6 d          -3.066   8.414  22.145  0.00  0.00     0.056 H 
ATOM     25  H7  CK6 d          -1.789   7.727  21.083  0.00  0.00     0.056 H 
ENDBRANCH  20  22
ENDBRANCH  14  20
ENDBRANCH   1  11
BRANCH   7  26
ATOM     26  C1B CK6 d           3.820   6.978  28.316  0.00  0.00     0.049 A 
ATOM     27  C2B CK6 d           3.407   7.800  27.252  0.00  0.00    -0.054 A 
ATOM     28  C3B CK6 d           3.942   9.034  26.972  0.00  0.00    -0.049 A 
ATOM     29  H11 CK6 d           2.613   7.436  26.610  0.00  0.00     0.087 H 
ATOM     30  C4B CK6 d           4.959   9.545  27.770  0.00  0.00     0.065 A 
ATOM     31  H12 CK6 d           3.571   9.609  26.131  0.00  0.00     0.087 H 
ATOM     32  C5B CK6 d           5.427   8.779  28.859  0.00  0.00    -0.049 A 
ATOM     33  C6B CK6 d           4.866   7.507  29.128  0.00  0.00    -0.054 A 
ATOM     34  H14 CK6 d           6.219   9.165  29.492  0.00  0.00     0.087 H 
ATOM     35  H13 CK6 d           5.237   6.926  29.965  0.00  0.00     0.087 H 
BRANCH  30  36
ATOM     36  O7B CK6 d           5.454  10.801  27.430  0.00  0.00    -0.361 OA
ATOM     37  H15 CK6 d           4.765  11.448  27.525  0.00  0.00     0.217 HD
ENDBRANCH  30  36
ENDBRANCH   7  26
TORSDOF 6
ENDMDL
MODEL 2
REMARK VINA RESULT:      -8.2      3.486      7.177
REMARK  6 active torsions:
REMARK  status: ('A' for Active; 'I' for Inactive)
REMARK    1  A    between atoms: C6A_1  and  C1A_2 
REMARK    2  A    between atoms: C3A_4  and  N7A_5 
REMARK    3  A    between atoms: N7A_5  and  C8A_6 
REMARK    4  A    between atoms: C5A_7  and  C4_9 
REMARK    5  A    between atoms: N7_15  and  C1B_16 
REMARK    6  A    between atoms: C4B_21  and  O7B_22 
ROOT
ATOM      1  C4  CK6 d           1.233   8.146  25.522  0.00  0.00     0.096 A 
ATOM      2  C5  CK6 d           2.434   8.733  25.945  0.00  0.00    -0.036 A 
ATOM      3  N3  CK6 d           0.427   8.757  24.623  0.00  0.00    -0.061 NA
ATOM      4  C2  CK6 d           0.755   9.976  24.101  0.00  0.00     0.727 A 
ATOM      5  N1  CK6 d           1.910  10.629  24.451  0.00  0.00    -0.075 NA
ATOM      6  C6  CK6 d           2.703   9.973  25.363  0.00  0.00     0.023 A 
ATOM      7  N7  CK6 d          -0.049  10.584  23.218  0.00  0.00    -0.188 N 
ATOM      8  H8  CK6 d           3.097   8.264  26.663  0.00  0.00     0.089 H 
ATOM      9  H9  CK6 d           3.623  10.465  25.657  0.00  0.00     0.115 H 
ATOM     10  H10 CK6 d           0.279  11.504  22.891  0.00  0.00     0.184 HD
ENDROOT
BRANCH   1  11
ATOM     11  C5A CK6 d           0.777   6.829  26.042  0.00  0.00     0.062 A 
ATOM     12  C1A CK6 d           1.136   6.036  27.092  0.00  0.00     0.053 A 
ATOM     13  N2A CK6 d           0.382   4.917  27.143  0.00  0.00    -0.228 NA
ATOM     14  C3A CK6 d          -0.537   4.742  26.245  0.00  0.00     0.167 A 
ATOM     15  S4A CK6 d          -0.577   6.083  25.120  0.00  0.00    -0.048 SA
BRANCH  12  16
ATOM     16  C6A CK6 d           2.170   6.169  28.171  0.00  0.00    -0.034 C 
ATOM     17  H1  CK6 d           1.692   6.526  29.095  0.00  0.00     0.035 H 
ATOM     18  H2  CK6 d           2.940   6.888  27.854  0.00  0.00     0.035 H 
ATOM     19  H3  CK6 d           2.636   5.190  28.354  0.00  0.00     0.035 H 
ENDBRANCH  12  16
BRANCH  14  20
ATOM     20  N7A CK6 d          -1.302   3.658  26.258  0.00  0.00    -0.373 N 
ATOM     21  H4  CK6 d          -1.318   3.114  27.133  0.00  0.00     0.161 HD
BRANCH  20  22
ATOM     22  C8A CK6 d          -2.127   3.154  25.157  0.00  0.00    -0.019 C 
ATOM     23  H5  CK6 d          -1.725   3.522  24.201  0.00  0.00     0.056 H 
ATOM     24  H6  CK6 d          -3.160   3.510  25.282  0.00  0.00     0.056 H 
ATOM     25  H7  CK6 d          -2.113   2.054  25.162  0.00  0.00     0.056 H 
ENDBRANCH  20  22
ENDBRANCH  14  20
ENDBRANCH   1  11
BRANCH   7  26
ATOM     26  C1B CK6 d          -1.262  10.162  22.674  0.00  0.00     0.049 A 
ATOM     27  C2B CK6 d          -2.506  10.523  23.223  0.00  0.00    -0.054 A 
ATOM     28  C3B CK6 d          -3.721  10.126  22.720  0.00  0.00    -0.049 A 
ATOM     29  H11 CK6 d          -2.506  11.158  24.102  0.00  0.00     0.087 H 
ATOM     30  C4B CK6 d          -3.772   9.314  21.592  0.00  0.00     0.065 A 
ATOM     31  H12 CK6 d          -4.639  10.445  23.201  0.00  0.00     0.087 H 
ATOM     32  C5B CK6 d          -2.565   8.910  20.983  0.00  0.00    -0.049 A 
ATOM     33  C6B CK6 d          -1.323   9.327  21.520  0.00  0.00    -0.054 A 
ATOM     34  H14 CK6 d          -2.588   8.279  20.102  0.00  0.00     0.087 H 
ATOM     35  H13 CK6 d          -0.402   9.006  21.045  0.00  0.00     0.087 H 
BRANCH  30  36
ATOM     36  O7B CK6 d          -5.036   8.950  21.136  0.00  0.00    -0.361 OA
ATOM     37  H15 CK6 d          -4.973   8.140  20.644  0.00  0.00     0.217 HD
ENDBRANCH  30  36
ENDBRANCH   7  26
TORSDOF 6
ENDMDL
MODEL 3
REMARK VINA RESULT:      -8.1      2.631      6.568
REMARK  6 active torsions:
REMARK  status: ('A' for Active; 'I' for Inactive)
REMARK    1  A    between atoms: C6A_1  and  C1A_2 
REMARK    2  A    between atoms: C3A_4  and  N7A_5 
REMARK    3  A    between atoms: N7A_5  and  C8A_6 
REMARK    4  A    between atoms: C5A_7  and  C4_9 
REMARK    5  A    between atoms: N7_15  and  C1B_16 
REMARK    6  A    between atoms: C4B_21  and  O7B_22 
ROOT
ATOM      1  C4  CK6 d           0.439   6.159  26.368  0.00  0.00     0.096 A 
ATOM      2  C5  CK6 d          -0.089   4.950  26.840  0.00  0.00    -0.036 A 
ATOM      3  N3  CK6 d          -0.185   6.873  25.402  0.00  0.00    -0.061 NA
ATOM      4  C2  CK6 d          -1.354   6.433  24.848  0.00  0.00     0.727 A 
ATOM      5  N1  CK6 d          -1.949   5.263  25.246  0.00  0.00    -0.075 NA
ATOM      6  C6  CK6 d          -1.287   4.570  26.231  0.00  0.00     0.023 A 
ATOM      7  N7  CK6 d          -1.965   7.136  23.886  0.00  0.00    -0.188 N 
ATOM      8  H8  CK6 d           0.391   4.361  27.613  0.00  0.00     0.089 H 
ATOM      9  H9  CK6 d          -1.736   3.642  26.566  0.00  0.00     0.115 H 
ATOM     10  H10 CK6 d          -2.833   6.717  23.524  0.00  0.00     0.184 HD
ENDROOT
BRANCH   1  11
ATOM     11  C5A CK6 d           1.713   6.719  26.894  0.00  0.00     0.062 A 
ATOM     12  C1A CK6 d           2.495   7.790  26.574  0.00  0.00     0.053 A 
ATOM     13  N2A CK6 d           3.568   7.876  27.389  0.00  0.00    -0.228 NA
ATOM     14  C3A CK6 d           3.717   6.987  28.322  0.00  0.00     0.167 A 
ATOM     15  S4A CK6 d           2.409   5.824  28.292  0.00  0.00    -0.048 SA
BRANCH  12  16
ATOM     16  C6A CK6 d           2.389   8.861  25.529  0.00  0.00    -0.034 C 
ATOM     17  H1  CK6 d           2.882   8.523  24.606  0.00  0.00     0.035 H 
ATOM     18  H2  CK6 d           2.878   9.777  25.892  0.00  0.00     0.035 H 
ATOM     19  H3  CK6 d           1.329   9.069  25.323  0.00  0.00     0.035 H 
ENDBRANCH  12  16
BRANCH  14  20
ATOM     20  N7A CK6 d           4.756   7.035  29.145  0.00  0.00    -0.373 N 
ATOM     21  H4  CK6 d           4.975   6.172  29.663  0.00  0.00     0.161 HD
BRANCH  20  22
ATOM     22  C8A CK6 d           5.624   8.188  29.395  0.00  0.00    -0.019 C 
ATOM     23  H5  CK6 d           5.442   8.571  30.410  0.00  0.00     0.056 H 
ATOM     24  H6  CK6 d           5.404   8.977  28.660  0.00  0.00     0.056 H 
ATOM     25  H7  CK6 d           6.676   7.882  29.302  0.00  0.00     0.056 H 
ENDBRANCH  20  22
ENDBRANCH  14  20
ENDBRANCH   1  11
BRANCH   7  26
ATOM     26  C1B CK6 d          -1.606   8.350  23.298  0.00  0.00     0.049 A 
ATOM     27  C2B CK6 d          -1.237   9.478  24.053  0.00  0.00    -0.054 A 
ATOM     28  C3B CK6 d          -0.881  10.690  23.513  0.00  0.00    -0.049 A 
ATOM     29  H11 CK6 d          -1.233   9.385  25.133  0.00  0.00     0.087 H 
ATOM     30  C4B CK6 d          -0.868  10.857  22.133  0.00  0.00     0.065 A 
ATOM     31  H12 CK6 d          -0.611  11.516  24.162  0.00  0.00     0.087 H 
ATOM     32  C5B CK6 d          -1.226   9.769  21.308  0.00  0.00    -0.049 A 
ATOM     33  C6B CK6 d          -1.594   8.529  21.884  0.00  0.00    -0.054 A 
ATOM     34  H14 CK6 d          -1.219   9.883  20.229  0.00  0.00     0.087 H 
ATOM     35  H13 CK6 d          -1.871   7.703  21.239  0.00  0.00     0.087 H 
BRANCH  30  36
ATOM     36  O7B CK6 d          -0.498  12.111  21.654  0.00  0.00    -0.361 OA
ATOM     37  H15 CK6 d          -1.215  12.721  21.780  0.00  0.00     0.217 HD
ENDBRANCH  30  36
ENDBRANCH   7  26
TORSDOF 6
ENDMDL
MODEL 4
REMARK VINA RESULT:      -7.9      2.870      6.601
REMARK  6 active torsions:
REMARK  status: ('A' for Active; 'I' for Inactive)
REMARK    1  A    between atoms: C6A_1  and  C1A_2 
REMARK    2  A    between atoms: C3A_4  and  N7A_5 
REMARK    3  A    between atoms: N7A_5  and  C8A_6 
REMARK    4  A    between atoms: C5A_7  and  C4_9 
REMARK    5  A    between atoms: N7_15  and  C1B_16 
REMARK    6  A    between atoms: C4B_21  and  O7B_22 
ROOT
ATOM      1  C4  CK6 d           2.550   6.452  27.746  0.00  0.00     0.096 A 
ATOM      2  C5  CK6 d           2.512   5.217  28.409  0.00  0.00    -0.036 A 
ATOM      3  N3  CK6 d           1.583   6.815  26.871  0.00  0.00    -0.061 NA
ATOM      4  C2  CK6 d           0.536   5.981  26.598  0.00  0.00     0.727 A 
ATOM      5  N1  CK6 d           0.410   4.754  27.197  0.00  0.00    -0.075 NA
ATOM      6  C6  CK6 d           1.409   4.425  28.082  0.00  0.00     0.023 A 
ATOM      7  N7  CK6 d          -0.415   6.338  25.724  0.00  0.00    -0.188 N 
ATOM      8  H8  CK6 d           3.272   4.905  29.114  0.00  0.00     0.089 H 
ATOM      9  H9  CK6 d           1.334   3.461  28.571  0.00  0.00     0.115 H 
ATOM     10  H10 CK6 d          -1.156   5.638  25.577  0.00  0.00     0.184 HD
ENDROOT
BRANCH   1  11
ATOM     11  C5A CK6 d           3.655   7.425  27.962  0.00  0.00     0.062 A 
ATOM     12  C1A CK6 d           4.052   8.577  27.349  0.00  0.00     0.053 A 
ATOM     13  N2A CK6 d           5.134   9.110  27.956  0.00  0.00    -0.228 NA
ATOM     14  C3A CK6 d           5.633   8.502  28.988  0.00  0.00     0.167 A 
ATOM     15  S4A CK6 d           4.725   7.052  29.361  0.00  0.00    -0.048 SA
BRANCH  12  16
ATOM     16  C6A CK6 d           3.528   9.345  26.171  0.00  0.00    -0.034 C 
ATOM     17  H1  CK6 d           3.044   8.652  25.467  0.00  0.00     0.035 H 
ATOM     18  H2  CK6 d           4.361   9.857  25.668  0.00  0.00     0.035 H 
ATOM     19  H3  CK6 d           2.795  10.089  26.515  0.00  0.00     0.035 H 
ENDBRANCH  12  16
BRANCH  14  20
ATOM     20  N7A CK6 d           6.695   8.991  29.616  0.00  0.00    -0.373 N 
ATOM     21  H4  CK6 d           7.557   9.085  29.061  0.00  0.00     0.161 HD
BRANCH  20  22
ATOM     22  C8A CK6 d           6.766   9.411  31.017  0.00  0.00    -0.019 C 
ATOM     23  H5  CK6 d           7.609   8.904  31.510  0.00  0.00     0.056 H 
ATOM     24  H6  CK6 d           5.829   9.146  31.528  0.00  0.00     0.056 H 
ATOM     25  H7  CK6 d           6.915  10.500  31.066  0.00  0.00     0.056 H 
ENDBRANCH  20  22
ENDBRANCH  14  20
ENDBRANCH   1  11
BRANCH   7  26
ATOM     26  C1B CK6 d          -0.556   7.512  24.983  0.00  0.00     0.049 A 
ATOM     27  C2B CK6 d          -0.077   8.756  25.434  0.00  0.00    -0.054 A 
ATOM     28  C3B CK6 d          -0.199   9.933  24.737  0.00  0.00    -0.049 A 
ATOM     29  H11 CK6 d           0.421   8.787  26.397  0.00  0.00     0.087 H 
ATOM     30  C4B CK6 d          -0.827   9.942  23.497  0.00  0.00     0.065 A 
ATOM     31  H12 CK6 d           0.194  10.854  25.153  0.00  0.00     0.087 H 
ATOM     32  C5B CK6 d          -1.334   8.732  22.976  0.00  0.00    -0.049 A 
ATOM     33  C6B CK6 d          -1.202   7.530  23.712  0.00  0.00    -0.054 A 
ATOM     34  H14 CK6 d          -1.825   8.723  22.010  0.00  0.00     0.087 H 
ATOM     35  H13 CK6 d          -1.599   6.607  23.303  0.00  0.00     0.087 H 
BRANCH  30  36
ATOM     36  O7B CK6 d          -0.916  11.170  22.846  0.00  0.00    -0.361 OA
ATOM     37  H15 CK6 d          -0.080  11.618  22.903  0.00  0.00     0.217 HD
ENDBRANCH  30  36
ENDBRANCH   7  26
TORSDOF 6
ENDMDL
MODEL 5
REMARK VINA RESULT:      -7.8      2.532      4.578
REMARK  6 active torsions:
REMARK  status: ('A' for Active; 'I' for Inactive)
REMARK    1  A    between atoms: C6A_1  and  C1A_2 
REMARK    2  A    between atoms: C3A_4  and  N7A_5 
REMARK    3  A    between atoms: N7A_5  and  C8A_6 
REMARK    4  A    between atoms: C5A_7  and  C4_9 
REMARK    5  A    between atoms: N7_15  and  C1B_16 
REMARK    6  A    between atoms: C4B_21  and  O7B_22 
ROOT
ATOM      1  C4  CK6 d           0.377   9.270  24.620  0.00  0.00     0.096 A 
ATOM      2  C5  CK6 d           0.006  10.257  23.696  0.00  0.00    -0.036 A 
ATOM      3  N3  CK6 d           1.531   9.356  25.321  0.00  0.00    -0.061 NA
ATOM      4  C2  CK6 d           2.382  10.410  25.145  0.00  0.00     0.727 A 
ATOM      5  N1  CK6 d           2.106  11.426  24.265  0.00  0.00    -0.075 NA
ATOM      6  C6  CK6 d           0.923  11.304  23.577  0.00  0.00     0.023 A 
ATOM      7  N7  CK6 d           3.529  10.489  25.832  0.00  0.00    -0.188 N 
ATOM      8  H8  CK6 d          -0.913  10.212  23.124  0.00  0.00     0.089 H 
ATOM      9  H9  CK6 d           0.678  12.094  22.876  0.00  0.00     0.115 H 
ATOM     10  H10 CK6 d           4.108  11.315  25.622  0.00  0.00     0.184 HD
ENDROOT
BRANCH   1  11
ATOM     11  C5A CK6 d          -0.472   8.075  24.874  0.00  0.00     0.062 A 
ATOM     12  C1A CK6 d          -1.638   7.598  24.351  0.00  0.00     0.053 A 
ATOM     13  N2A CK6 d          -1.993   6.429  24.927  0.00  0.00    -0.228 NA
ATOM     14  C3A CK6 d          -1.230   5.930  25.849  0.00  0.00     0.167 A 
ATOM     15  S4A CK6 d           0.159   6.957  26.136  0.00  0.00    -0.048 SA
BRANCH  12  16
ATOM     16  C6A CK6 d          -2.567   8.103  23.286  0.00  0.00    -0.034 C 
ATOM     17  H1  CK6 d          -1.980   8.532  22.461  0.00  0.00     0.035 H 
ATOM     18  H2  CK6 d          -3.224   8.876  23.711  0.00  0.00     0.035 H 
ATOM     19  H3  CK6 d          -3.177   7.270  22.908  0.00  0.00     0.035 H 
ENDBRANCH  12  16
BRANCH  14  20
ATOM     20  N7A CK6 d          -1.540   4.783  26.440  0.00  0.00    -0.373 N 
ATOM     21  H4  CK6 d          -2.307   4.810  27.127  0.00  0.00     0.161 HD
BRANCH  20  22
ATOM     22  C8A CK6 d          -0.903   3.483  26.216  0.00  0.00    -0.019 C 
ATOM     23  H5  CK6 d          -1.389   2.724  26.848  0.00  0.00     0.056 H 
ATOM     24  H6  CK6 d           0.164   3.548  26.475  0.00  0.00     0.056 H 
ATOM     25  H7  CK6 d          -1.009   3.201  25.158  0.00  0.00     0.056 H 
ENDBRANCH  20  22
ENDBRANCH  14  20
ENDBRANCH   1  11
BRANCH   7  26
ATOM     26  C1B CK6 d           4.060   9.624  26.790  0.00  0.00     0.049 A 
ATOM     27  C2B CK6 d           3.624   8.294  26.936  0.00  0.00    -0.054 A 
ATOM     28  C3B CK6 d           4.119   7.414  27.867  0.00  0.00    -0.049 A 
ATOM     29  H11 CK6 d           2.847   7.941  26.268  0.00  0.00     0.087 H 
ATOM     30  C4B CK6 d           5.119   7.820  28.742  0.00  0.00     0.065 A 
ATOM     31  H12 CK6 d           3.729   6.403  27.920  0.00  0.00     0.087 H 
ATOM     32  C5B CK6 d           5.610   9.141  28.657  0.00  0.00    -0.049 A 
ATOM     33  C6B CK6 d           5.084  10.035  27.693  0.00  0.00    -0.054 A 
ATOM     34  H14 CK6 d           6.391   9.472  29.332  0.00  0.00     0.087 H 
ATOM     35  H13 CK6 d           5.467  11.048  27.641  0.00  0.00     0.087 H 
BRANCH  30  36
ATOM     36  O7B CK6 d           5.574   6.877  29.660  0.00  0.00    -0.361 OA
ATOM     37  H15 CK6 d           5.325   6.008  29.368  0.00  0.00     0.217 HD
ENDBRANCH  30  36
ENDBRANCH   7  26
TORSDOF 6
ENDMDL
MODEL 6
REMARK VINA RESULT:      -7.7      2.018      3.032
REMARK  6 active torsions:
REMARK  status: ('A' for Active; 'I' for Inactive)
REMARK    1  A    between atoms: C6A_1  and  C1A_2 
REMARK    2  A    between atoms: C3A_4  and  N7A_5 
REMARK    3  A    between atoms: N7A_5  and  C8A_6 
REMARK    4  A    between atoms: C5A_7  and  C4_9 
REMARK    5  A    between atoms: N7_15  and  C1B_16 
REMARK    6  A    between atoms: C4B_21  and  O7B_22 
ROOT
ATOM      1  C4  CK6 d          -0.427   7.355  25.269  0.00  0.00     0.096 A 
ATOM      2  C5  CK6 d          -1.441   6.393  25.159  0.00  0.00    -0.036 A 
ATOM      3  N3  CK6 d           0.619   7.185  26.111  0.00  0.00    -0.061 NA
ATOM      4  C2  CK6 d           0.719   6.068  26.891  0.00  0.00     0.727 A 
ATOM      5  N1  CK6 d          -0.223   5.071  26.852  0.00  0.00    -0.075 NA
ATOM      6  C6  CK6 d          -1.266   5.279  25.982  0.00  0.00     0.023 A 
ATOM      7  N7  CK6 d           1.750   5.906  27.730  0.00  0.00    -0.188 N 
ATOM      8  H8  CK6 d          -2.287   6.506  24.492  0.00  0.00     0.089 H 
ATOM      9  H9  CK6 d          -2.024   4.506  25.929  0.00  0.00     0.115 H 
ATOM     10  H10 CK6 d           1.730   5.037  28.283  0.00  0.00     0.184 HD
ENDROOT
BRANCH   1  11
ATOM     11  C5A CK6 d          -0.448   8.614  24.476  0.00  0.00     0.062 A 
ATOM     12  C1A CK6 d          -1.271   9.129  23.518  0.00  0.00     0.053 A 
ATOM     13  N2A CK6 d          -0.855  10.350  23.117  0.00  0.00    -0.228 NA
ATOM     14  C3A CK6 d           0.209  10.856  23.659  0.00  0.00     0.167 A 
ATOM     15  S4A CK6 d           0.884   9.764  24.850  0.00  0.00    -0.048 SA
BRANCH  12  16
ATOM     16  C6A CK6 d          -2.515   8.619  22.851  0.00  0.00    -0.034 C 
ATOM     17  H1  CK6 d          -2.612   7.539  23.033  0.00  0.00     0.035 H 
ATOM     18  H2  CK6 d          -2.452   8.804  21.768  0.00  0.00     0.035 H 
ATOM     19  H3  CK6 d          -3.391   9.140  23.262  0.00  0.00     0.035 H 
ENDBRANCH  12  16
BRANCH  14  20
ATOM     20  N7A CK6 d           0.652  12.053  23.298  0.00  0.00    -0.373 N 
ATOM     21  H4  CK6 d           0.128  12.533  22.552  0.00  0.00     0.161 HD
BRANCH  20  22
ATOM     22  C8A CK6 d           1.809  12.762  23.849  0.00  0.00    -0.019 C 
ATOM     23  H5  CK6 d           2.652  12.063  23.952  0.00  0.00     0.056 H 
ATOM     24  H6  CK6 d           1.550  13.172  24.837  0.00  0.00     0.056 H 
ATOM     25  H7  CK6 d           2.092  13.582  23.173  0.00  0.00     0.056 H 
ENDBRANCH  20  22
ENDBRANCH  14  20
ENDBRANCH   1  11
BRANCH   7  26
ATOM     26  C1B CK6 d           2.847   6.734  27.971  0.00  0.00     0.049 A 
ATOM     27  C2B CK6 d           3.582   6.690  29.169  0.00  0.00    -0.054 A 
ATOM     28  C3B CK6 d           4.664   7.490  29.446  0.00  0.00    -0.049 A 
ATOM     29  H11 CK6 d           3.273   5.978  29.926  0.00  0.00     0.087 H 
ATOM     30  C4B CK6 d           5.099   8.416  28.505  0.00  0.00     0.065 A 
ATOM     31  H12 CK6 d           5.178   7.399  30.396  0.00  0.00     0.087 H 
ATOM     32  C5B CK6 d           4.414   8.518  27.275  0.00  0.00    -0.049 A 
ATOM     33  C6B CK6 d           3.298   7.688  27.011  0.00  0.00    -0.054 A 
ATOM     34  H14 CK6 d           4.742   9.235  26.530  0.00  0.00     0.087 H 
ATOM     35  H13 CK6 d           2.777   7.779  26.064  0.00  0.00     0.087 H 
BRANCH  30  36
ATOM     36  O7B CK6 d           6.202   9.193  28.850  0.00  0.00    -0.361 OA
ATOM     37  H15 CK6 d           6.784   9.264  28.103  0.00  0.00     0.217 HD
ENDBRANCH  30  36
ENDBRANCH   7  26
TORSDOF 6
ENDMDL
MODEL 7
REMARK VINA RESULT:      -7.7      1.824      2.884
REMARK  6 active torsions:
REMARK  status: ('A' for Active; 'I' for Inactive)
REMARK    1  A    between atoms: C6A_1  and  C1A_2 
REMARK    2  A    between atoms: C3A_4  and  N7A_5 
REMARK    3  A    between atoms: N7A_5  and  C8A_6 
REMARK    4  A    between atoms: C5A_7  and  C4_9 
REMARK    5  A    between atoms: N7_15  and  C1B_16 
REMARK    6  A    between atoms: C4B_21  and  O7B_22 
ROOT
ATOM      1  C4  CK6 d          -0.745   7.266  25.104  0.00  0.00     0.096 A 
ATOM      2  C5  CK6 d          -1.761   6.304  25.013  0.00  0.00    -0.036 A 
ATOM      3  N3  CK6 d           0.309   7.104  25.938  0.00  0.00    -0.061 NA
ATOM      4  C2  CK6 d           0.414   5.995  26.729  0.00  0.00     0.727 A 
ATOM      5  N1  CK6 d          -0.528   4.998  26.710  0.00  0.00    -0.075 NA
ATOM      6  C6  CK6 d          -1.579   5.198  25.847  0.00  0.00     0.023 A 
ATOM      7  N7  CK6 d           1.453   5.842  27.561  0.00  0.00    -0.188 N 
ATOM      8  H8  CK6 d          -2.613   6.409  24.353  0.00  0.00     0.089 H 
ATOM      9  H9  CK6 d          -2.338   4.425  25.810  0.00  0.00     0.115 H 
ATOM     10  H10 CK6 d           1.437   4.979  28.123  0.00  0.00     0.184 HD
ENDROOT
BRANCH   1  11
ATOM     11  C5A CK6 d          -0.773   8.516  24.297  0.00  0.00     0.062 A 
ATOM     12  C1A CK6 d           0.013   9.628  24.225  0.00  0.00     0.053 A 
ATOM     13  N2A CK6 d          -0.441  10.491  23.291  0.00  0.00    -0.228 NA
ATOM     14  C3A CK6 d          -1.503  10.178  22.615  0.00  0.00     0.167 A 
ATOM     15  S4A CK6 d          -2.122   8.617  23.110  0.00  0.00    -0.048 SA
BRANCH  12  16
ATOM     16  C6A CK6 d           1.251  10.058  24.955  0.00  0.00    -0.034 C 
ATOM     17  H1  CK6 d           0.968  10.572  25.886  0.00  0.00     0.035 H 
ATOM     18  H2  CK6 d           1.832  10.744  24.320  0.00  0.00     0.035 H 
ATOM     19  H3  CK6 d           1.861   9.175  25.195  0.00  0.00     0.035 H 
ENDBRANCH  12  16
BRANCH  14  20
ATOM     20  N7A CK6 d          -1.983  10.995  21.687  0.00  0.00    -0.373 N 
ATOM     21  H4  CK6 d          -2.632  11.728  22.008  0.00  0.00     0.161 HD
BRANCH  20  22
ATOM     22  C8A CK6 d          -1.685  10.964  20.254  0.00  0.00    -0.019 C 
ATOM     23  H5  CK6 d          -0.959  11.755  20.013  0.00  0.00     0.056 H 
ATOM     24  H6  CK6 d          -2.611  11.130  19.683  0.00  0.00     0.056 H 
ATOM     25  H7  CK6 d          -1.260   9.984  19.989  0.00  0.00     0.056 H 
ENDBRANCH  20  22
ENDBRANCH  14  20
ENDBRANCH   1  11
BRANCH   7  26
ATOM     26  C1B CK6 d           2.553   6.671  27.782  0.00  0.00     0.049 A 
ATOM     27  C2B CK6 d           2.984   7.626  26.844  0.00  0.00    -0.054 A 
ATOM     28  C3B CK6 d           4.063   8.458  27.023  0.00  0.00    -0.049 A 
ATOM     29  H11 CK6 d           2.427   7.712  25.918  0.00  0.00     0.087 H 
ATOM     30  C4B CK6 d           4.805   8.387  28.196  0.00  0.00     0.065 A 
ATOM     31  H12 CK6 d           4.335   9.168  26.250  0.00  0.00     0.087 H 
ATOM     32  C5B CK6 d           4.433   7.453  29.187  0.00  0.00    -0.049 A 
ATOM     33  C6B CK6 d           3.321   6.602  28.982  0.00  0.00    -0.054 A 
ATOM     34  H14 CK6 d           5.002   7.387  30.108  0.00  0.00     0.087 H 
ATOM     35  H13 CK6 d           3.048   5.886  29.749  0.00  0.00     0.087 H 
BRANCH  30  36
ATOM     36  O7B CK6 d           5.885   9.259  28.311  0.00  0.00    -0.361 OA
ATOM     37  H15 CK6 d           5.713   9.884  29.006  0.00  0.00     0.217 HD
ENDBRANCH  30  36
ENDBRANCH   7  26
TORSDOF 6
ENDMDL
MODEL 8
REMARK VINA RESULT:      -7.6      3.326      7.167
REMARK  6 active torsions:
REMARK  status: ('A' for Active; 'I' for Inactive)
REMARK    1  A    between atoms: C6A_1  and  C1A_2 
REMARK    2  A    between atoms: C3A_4  and  N7A_5 
REMARK    3  A    between atoms: N7A_5  and  C8A_6 
REMARK    4  A    between atoms: C5A_7  and  C4_9 
REMARK    5  A    between atoms: N7_15  and  C1B_16 
REMARK    6  A    between atoms: C4B_21  and  O7B_22 
ROOT
ATOM      1  C4  CK6 d           0.669   7.524  25.674  0.00  0.00     0.096 A 
ATOM      2  C5  CK6 d           0.523   6.367  26.451  0.00  0.00    -0.036 A 
ATOM      3  N3  CK6 d          -0.245   7.865  24.736  0.00  0.00    -0.061 NA
ATOM      4  C2  CK6 d          -1.343   7.084  24.509  0.00  0.00     0.727 A 
ATOM      5  N1  CK6 d          -1.574   5.934  25.220  0.00  0.00    -0.075 NA
ATOM      6  C6  CK6 d          -0.626   5.625  26.165  0.00  0.00     0.023 A 
ATOM      7  N7  CK6 d          -2.242   7.418  23.574  0.00  0.00    -0.188 N 
ATOM      8  H8  CK6 d           1.240   6.072  27.208  0.00  0.00     0.089 H 
ATOM      9  H9  CK6 d          -0.784   4.722  26.743  0.00  0.00     0.115 H 
ATOM     10  H10 CK6 d          -3.028   6.761  23.470  0.00  0.00     0.184 HD
ENDROOT
BRANCH   1  11
ATOM     11  C5A CK6 d           1.836   8.434  25.831  0.00  0.00     0.062 A 
ATOM     12  C1A CK6 d           2.182   9.648  25.315  0.00  0.00     0.053 A 
ATOM     13  N2A CK6 d           3.368  10.069  25.802  0.00  0.00    -0.228 NA
ATOM     14  C3A CK6 d           3.997   9.318  26.652  0.00  0.00     0.167 A 
ATOM     15  S4A CK6 d           3.096   7.852  26.978  0.00  0.00    -0.048 SA
BRANCH  12  16
ATOM     16  C6A CK6 d           1.513  10.579  24.346  0.00  0.00    -0.034 C 
ATOM     17  H1  CK6 d           0.476  10.759  24.666  0.00  0.00     0.035 H 
ATOM     18  H2  CK6 d           1.515  10.126  23.343  0.00  0.00     0.035 H 
ATOM     19  H3  CK6 d           2.059  11.533  24.319  0.00  0.00     0.035 H 
ENDBRANCH  12  16
BRANCH  14  20
ATOM     20  N7A CK6 d           5.164   9.693  27.158  0.00  0.00    -0.373 N 
ATOM     21  H4  CK6 d           5.663  10.444  26.660  0.00  0.00     0.161 HD
BRANCH  20  22
ATOM     22  C8A CK6 d           5.817   9.151  28.352  0.00  0.00    -0.019 C 
ATOM     23  H5  CK6 d           6.492   9.909  28.777  0.00  0.00     0.056 H 
ATOM     24  H6  CK6 d           6.395   8.256  28.079  0.00  0.00     0.056 H 
ATOM     25  H7  CK6 d           5.053   8.882  29.097  0.00  0.00     0.056 H 
ENDBRANCH  20  22
ENDBRANCH  14  20
ENDBRANCH   1  11
BRANCH   7  26
ATOM     26  C1B CK6 d          -2.277   8.520  22.718  0.00  0.00     0.049 A 
ATOM     27  C2B CK6 d          -3.343   9.437  22.705  0.00  0.00    -0.054 A 
ATOM     28  C3B CK6 d          -3.417  10.530  21.876  0.00  0.00    -0.049 A 
ATOM     29  H11 CK6 d          -4.163   9.269  23.394  0.00  0.00     0.087 H 
ATOM     30  C4B CK6 d          -2.388  10.788  20.978  0.00  0.00     0.065 A 
ATOM     31  H12 CK6 d          -4.275  11.191  21.923  0.00  0.00     0.087 H 
ATOM     32  C5B CK6 d          -1.281   9.914  20.933  0.00  0.00    -0.049 A 
ATOM     33  C6B CK6 d          -1.227   8.790  21.792  0.00  0.00    -0.054 A 
ATOM     34  H14 CK6 d          -0.470  10.103  20.238  0.00  0.00     0.087 H 
ATOM     35  H13 CK6 d          -0.373   8.123  21.744  0.00  0.00     0.087 H 
BRANCH  30  36
ATOM     36  O7B CK6 d          -2.527  11.913  20.169  0.00  0.00    -0.361 OA
ATOM     37  H15 CK6 d          -2.005  11.803  19.382  0.00  0.00     0.217 HD
ENDBRANCH  30  36
ENDBRANCH   7  26
TORSDOF 6
ENDMDL
MODEL 9
REMARK VINA RESULT:      -7.5      2.661      6.341
REMARK  6 active torsions:
REMARK  status: ('A' for Active; 'I' for Inactive)
REMARK    1  A    between atoms: C6A_1  and  C1A_2 
REMARK    2  A    between atoms: C3A_4  and  N7A_5 
REMARK    3  A    between atoms: N7A_5  and  C8A_6 
REMARK    4  A    between atoms: C5A_7  and  C4_9 
REMARK    5  A    between atoms: N7_15  and  C1B_16 
REMARK    6  A    between atoms: C4B_21  and  O7B_22 
ROOT
ATOM      1  C4  CK6 d           0.521   6.487  26.223  0.00  0.00     0.096 A 
ATOM      2  C5  CK6 d           0.018   5.274  26.715  0.00  0.00    -0.036 A 
ATOM      3  N3  CK6 d          -0.124   7.179  25.255  0.00  0.00    -0.061 NA
ATOM      4  C2  CK6 d          -1.291   6.713  24.718  0.00  0.00     0.727 A 
ATOM      5  N1  CK6 d          -1.862   5.537  25.135  0.00  0.00    -0.075 NA
ATOM      6  C6  CK6 d          -1.179   4.867  26.121  0.00  0.00     0.023 A 
ATOM      7  N7  CK6 d          -1.923   7.394  23.754  0.00  0.00    -0.188 N 
ATOM      8  H8  CK6 d           0.516   4.702  27.489  0.00  0.00     0.089 H 
ATOM      9  H9  CK6 d          -1.609   3.936  26.471  0.00  0.00     0.115 H 
ATOM     10  H10 CK6 d          -2.788   6.956  23.406  0.00  0.00     0.184 HD
ENDROOT
BRANCH   1  11
ATOM     11  C5A CK6 d           1.791   7.073  26.730  0.00  0.00     0.062 A 
ATOM     12  C1A CK6 d           2.643   6.777  27.753  0.00  0.00     0.053 A 
ATOM     13  N2A CK6 d           3.694   7.625  27.779  0.00  0.00    -0.228 NA
ATOM     14  C3A CK6 d           3.765   8.559  26.882  0.00  0.00     0.167 A 
ATOM     15  S4A CK6 d           2.397   8.486  25.792  0.00  0.00    -0.048 SA
BRANCH  12  16
ATOM     16  C6A CK6 d           2.639   5.719  28.817  0.00  0.00    -0.034 C 
ATOM     17  H1  CK6 d           2.473   4.735  28.355  0.00  0.00     0.035 H 
ATOM     18  H2  CK6 d           1.834   5.927  29.537  0.00  0.00     0.035 H 
ATOM     19  H3  CK6 d           3.607   5.721  29.338  0.00  0.00     0.035 H 
ENDBRANCH  12  16
BRANCH  14  20
ATOM     20  N7A CK6 d           4.781   9.412  26.869  0.00  0.00    -0.373 N 
ATOM     21  H4  CK6 d           5.725   9.005  26.810  0.00  0.00     0.161 HD
BRANCH  20  22
ATOM     22  C8A CK6 d           4.698  10.873  26.931  0.00  0.00    -0.019 C 
ATOM     23  H5  CK6 d           4.316  11.259  25.973  0.00  0.00     0.056 H 
ATOM     24  H6  CK6 d           5.698  11.290  27.122  0.00  0.00     0.056 H 
ATOM     25  H7  CK6 d           4.016  11.168  27.742  0.00  0.00     0.056 H 
ENDBRANCH  20  22
ENDBRANCH  14  20
ENDBRANCH   1  11
BRANCH   7  26
ATOM     26  C1B CK6 d          -1.591   8.607  23.149  0.00  0.00     0.049 A 
ATOM     27  C2B CK6 d          -1.602   8.787  21.754  0.00  0.00    -0.054 A 
ATOM     28  C3B CK6 d          -1.278   9.963  21.121  0.00  0.00    -0.049 A 
ATOM     29  H11 CK6 d          -1.886   7.942  21.138  0.00  0.00     0.087 H 
ATOM     30  C4B CK6 d          -0.911  11.075  21.870  0.00  0.00     0.065 A 
ATOM     31  H12 CK6 d          -1.308  10.023  20.039  0.00  0.00     0.087 H 
ATOM     32  C5B CK6 d          -0.877  10.973  23.277  0.00  0.00    -0.049 A 
ATOM     33  C6B CK6 d          -1.211   9.751  23.911  0.00  0.00    -0.054 A 
ATOM     34  H14 CK6 d          -0.595  11.832  23.875  0.00  0.00     0.087 H 
ATOM     35  H13 CK6 d          -1.176   9.685  24.993  0.00  0.00     0.087 H 
BRANCH  30  36
ATOM     36  O7B CK6 d          -0.596  12.233  21.164  0.00  0.00    -0.361 OA
ATOM     37  H15 CK6 d          -0.556  12.968  21.765  0.00  0.00     0.217 HD
ENDBRANCH  30  36
ENDBRANCH   7  26
TORSDOF 6
ENDMDL
MODEL 10
REMARK VINA RESULT:      -7.5      2.859      6.256
REMARK  6 active torsions:
REMARK  status: ('A' for Active; 'I' for Inactive)
REMARK    1  A    between atoms: C6A_1  and  C1A_2 
REMARK    2  A    between atoms: C3A_4  and  N7A_5 
REMARK    3  A    between atoms: N7A_5  and  C8A_6 
REMARK    4  A    between atoms: C5A_7  and  C4_9 
REMARK    5  A    between atoms: N7_15  and  C1B_16 
REMARK    6  A    between atoms: C4B_21  and  O7B_22 
ROOT
ATOM      1  C4  CK6 d           2.496   6.756  27.569  0.00  0.00     0.096 A 
ATOM      2  C5  CK6 d           2.548   5.606  28.368  0.00  0.00    -0.036 A 
ATOM      3  N3  CK6 d           1.506   6.943  26.665  0.00  0.00    -0.061 NA
ATOM      4  C2  CK6 d           0.523   6.009  26.496  0.00  0.00     0.727 A 
ATOM      5  N1  CK6 d           0.487   4.853  27.233  0.00  0.00    -0.075 NA
ATOM      6  C6  CK6 d           1.507   4.702  28.142  0.00  0.00     0.023 A 
ATOM      7  N7  CK6 d          -0.450   6.192  25.594  0.00  0.00    -0.188 N 
ATOM      8  H8  CK6 d           3.328   5.433  29.100  0.00  0.00     0.089 H 
ATOM      9  H9  CK6 d           1.503   3.798  28.740  0.00  0.00     0.115 H 
ATOM     10  H10 CK6 d          -1.138   5.428  25.533  0.00  0.00     0.184 HD
ENDROOT
BRANCH   1  11
ATOM     11  C5A CK6 d           3.525   7.825  27.664  0.00  0.00     0.062 A 
ATOM     12  C1A CK6 d           4.557   8.090  28.516  0.00  0.00     0.053 A 
ATOM     13  N2A CK6 d           5.225   9.204  28.147  0.00  0.00    -0.228 NA
ATOM     14  C3A CK6 d           4.833   9.848  27.092  0.00  0.00     0.167 A 
ATOM     15  S4A CK6 d           3.448   9.064  26.360  0.00  0.00    -0.048 SA
BRANCH  12  16
ATOM     16  C6A CK6 d           5.079   7.398  29.740  0.00  0.00    -0.034 C 
ATOM     17  H1  CK6 d           5.218   6.329  29.526  0.00  0.00     0.035 H 
ATOM     18  H2  CK6 d           4.359   7.518  30.564  0.00  0.00     0.035 H 
ATOM     19  H3  CK6 d           6.043   7.842  30.029  0.00  0.00     0.035 H 
ENDBRANCH  12  16
BRANCH  14  20
ATOM     20  N7A CK6 d           5.461  10.946  26.693  0.00  0.00    -0.373 N 
ATOM     21  H4  CK6 d           6.482  10.877  26.575  0.00  0.00     0.161 HD
BRANCH  20  22
ATOM     22  C8A CK6 d           4.853  12.246  26.401  0.00  0.00    -0.019 C 
ATOM     23  H5  CK6 d           5.596  13.042  26.556  0.00  0.00     0.056 H 
ATOM     24  H6  CK6 d           3.996  12.408  27.072  0.00  0.00     0.056 H 
ATOM     25  H7  CK6 d           4.509  12.264  25.356  0.00  0.00     0.056 H 
ENDBRANCH  20  22
ENDBRANCH  14  20
ENDBRANCH   1  11
BRANCH   7  26
ATOM     26  C1B CK6 d          -0.676   7.260  24.724  0.00  0.00     0.049 A 
ATOM     27  C2B CK6 d          -1.115   7.080  23.400  0.00  0.00    -0.054 A 
ATOM     28  C3B CK6 d          -1.345   8.103  22.513  0.00  0.00    -0.049 A 
ATOM     29  H11 CK6 d          -1.284   6.065  23.057  0.00  0.00     0.087 H 
ATOM     30  C4B CK6 d          -1.146   9.421  22.909  0.00  0.00     0.065 A 
ATOM     31  H12 CK6 d          -1.682   7.884  21.506  0.00  0.00     0.087 H 
ATOM     32  C5B CK6 d          -0.706   9.683  24.224  0.00  0.00    -0.049 A 
ATOM     33  C6B CK6 d          -0.471   8.614  25.122  0.00  0.00    -0.054 A 
ATOM     34  H14 CK6 d          -0.547  10.705  24.548  0.00  0.00     0.087 H 
ATOM     35  H13 CK6 d          -0.128   8.828  26.128  0.00  0.00     0.087 H 
BRANCH  30  36
ATOM     36  O7B CK6 d          -1.398  10.408  21.959  0.00  0.00    -0.361 OA
ATOM     37  H15 CK6 d          -1.423  11.256  22.385  0.00  0.00     0.217 HD
ENDBRANCH  30  36
ENDBRANCH   7  26
TORSDOF 6
ENDMDL
MODEL 11
REMARK VINA RESULT:      -7.5      2.528      4.380
REMARK  6 active torsions:
REMARK  status: ('A' for Active; 'I' for Inactive)
REMARK    1  A    between atoms: C6A_1  and  C1A_2 
REMARK    2  A    between atoms: C3A_4  and  N7A_5 
REMARK    3  A    between atoms: N7A_5  and  C8A_6 
REMARK    4  A    between atoms: C5A_7  and  C4_9 
REMARK    5  A    between atoms: N7_15  and  C1B_16 
REMARK    6  A    between atoms: C4B_21  and  O7B_22 
ROOT
ATOM      1  C4  CK6 d           0.548   9.055  24.807  0.00  0.00     0.096 A 
ATOM      2  C5  CK6 d           0.150   9.991  23.843  0.00  0.00    -0.036 A 
ATOM      3  N3  CK6 d           1.698   9.204  25.504  0.00  0.00    -0.061 NA
ATOM      4  C2  CK6 d           2.518  10.275  25.285  0.00  0.00     0.727 A 
ATOM      5  N1  CK6 d           2.213  11.245  24.364  0.00  0.00    -0.075 NA
ATOM      6  C6  CK6 d           1.035  11.059  23.681  0.00  0.00     0.023 A 
ATOM      7  N7  CK6 d           3.660  10.416  25.970  0.00  0.00    -0.188 N 
ATOM      8  H8  CK6 d          -0.766   9.895  23.272  0.00  0.00     0.089 H 
ATOM      9  H9  CK6 d           0.769  11.811  22.948  0.00  0.00     0.115 H 
ATOM     10  H10 CK6 d           4.215  11.249  25.726  0.00  0.00     0.184 HD
ENDROOT
BRANCH   1  11
ATOM     11  C5A CK6 d          -0.266   7.846  25.110  0.00  0.00     0.062 A 
ATOM     12  C1A CK6 d          -0.113   6.770  25.935  0.00  0.00     0.053 A 
ATOM     13  N2A CK6 d          -1.173   5.937  25.856  0.00  0.00    -0.228 NA
ATOM     14  C3A CK6 d          -2.150   6.242  25.059  0.00  0.00     0.167 A 
ATOM     15  S4A CK6 d          -1.833   7.752  24.230  0.00  0.00    -0.048 SA
BRANCH  12  16
ATOM     16  C6A CK6 d           0.969   6.352  26.887  0.00  0.00    -0.034 C 
ATOM     17  H1  CK6 d           1.301   5.334  26.640  0.00  0.00     0.035 H 
ATOM     18  H2  CK6 d           0.579   6.372  27.915  0.00  0.00     0.035 H 
ATOM     19  H3  CK6 d           1.818   7.046  26.803  0.00  0.00     0.035 H 
ENDBRANCH  12  16
BRANCH  14  20
ATOM     20  N7A CK6 d          -3.211   5.454  24.952  0.00  0.00    -0.373 N 
ATOM     21  H4  CK6 d          -3.048   4.508  24.577  0.00  0.00     0.161 HD
BRANCH  20  22
ATOM     22  C8A CK6 d          -4.591   5.789  25.313  0.00  0.00    -0.019 C 
ATOM     23  H5  CK6 d          -4.834   6.794  24.939  0.00  0.00     0.056 H 
ATOM     24  H6  CK6 d          -4.698   5.770  26.408  0.00  0.00     0.056 H 
ATOM     25  H7  CK6 d          -5.276   5.054  24.864  0.00  0.00     0.056 H 
ENDBRANCH  20  22
ENDBRANCH  14  20
ENDBRANCH   1  11
BRANCH   7  26
ATOM     26  C1B CK6 d           4.215   9.608  26.963  0.00  0.00     0.049 A 
ATOM     27  C2B CK6 d           3.909   8.240  27.087  0.00  0.00    -0.054 A 
ATOM     28  C3B CK6 d           4.430   7.413  28.051  0.00  0.00    -0.049 A 
ATOM     29  H11 CK6 d           3.215   7.811  26.373  0.00  0.00     0.087 H 
ATOM     30  C4B CK6 d           5.327   7.918  28.986  0.00  0.00     0.065 A 
ATOM     31  H12 CK6 d           4.143   6.368  28.084  0.00  0.00     0.087 H 
ATOM     32  C5B CK6 d           5.685   9.281  28.926  0.00  0.00    -0.049 A 
ATOM     33  C6B CK6 d           5.133  10.119  27.927  0.00  0.00    -0.054 A 
ATOM     34  H14 CK6 d           6.384   9.689  29.648  0.00  0.00     0.087 H 
ATOM     35  H13 CK6 d           5.413  11.166  27.894  0.00  0.00     0.087 H 
BRANCH  30  36
ATOM     36  O7B CK6 d           5.816   7.024  29.935  0.00  0.00    -0.361 OA
ATOM     37  H15 CK6 d           6.541   6.535  29.563  0.00  0.00     0.217 HD
ENDBRANCH  30  36
ENDBRANCH   7  26
TORSDOF 6
ENDMDL
MODEL 12
REMARK VINA RESULT:      -7.4      2.111      5.885
REMARK  6 active torsions:
REMARK  status: ('A' for Active; 'I' for Inactive)
REMARK    1  A    between atoms: C6A_1  and  C1A_2 
REMARK    2  A    between atoms: C3A_4  and  N7A_5 
REMARK    3  A    between atoms: N7A_5  and  C8A_6 
REMARK    4  A    between atoms: C5A_7  and  C4_9 
REMARK    5  A    between atoms: N7_15  and  C1B_16 
REMARK    6  A    between atoms: C4B_21  and  O7B_22 
ROOT
ATOM      1  C4  CK6 d          -0.592   5.278  26.327  0.00  0.00     0.096 A 
ATOM      2  C5  CK6 d          -1.565   4.269  26.351  0.00  0.00    -0.036 A 
ATOM      3  N3  CK6 d          -0.745   6.390  25.571  0.00  0.00    -0.061 NA
ATOM      4  C2  CK6 d          -1.856   6.563  24.795  0.00  0.00     0.727 A 
ATOM      5  N1  CK6 d          -2.864   5.633  24.753  0.00  0.00    -0.075 NA
ATOM      6  C6  CK6 d          -2.672   4.521  25.538  0.00  0.00     0.023 A 
ATOM      7  N7  CK6 d          -2.002   7.659  24.040  0.00  0.00    -0.188 N 
ATOM      8  H8  CK6 d          -1.466   3.371  26.949  0.00  0.00     0.089 H 
ATOM      9  H9  CK6 d          -3.454   3.770  25.526  0.00  0.00     0.115 H 
ATOM     10  H10 CK6 d          -2.867   7.693  23.482  0.00  0.00     0.184 HD
ENDROOT
BRANCH   1  11
ATOM     11  C5A CK6 d           0.661   5.179  27.124  0.00  0.00     0.062 A 
ATOM     12  C1A CK6 d           1.372   4.151  27.668  0.00  0.00     0.053 A 
ATOM     13  N2A CK6 d           2.480   4.598  28.297  0.00  0.00    -0.228 NA
ATOM     14  C3A CK6 d           2.723   5.872  28.305  0.00  0.00     0.167 A 
ATOM     15  S4A CK6 d           1.476   6.752  27.445  0.00  0.00    -0.048 SA
BRANCH  12  16
ATOM     16  C6A CK6 d           1.170   2.664  27.695  0.00  0.00    -0.034 C 
ATOM     17  H1  CK6 d           0.784   2.329  26.721  0.00  0.00     0.035 H 
ATOM     18  H2  CK6 d           0.447   2.407  28.484  0.00  0.00     0.035 H 
ATOM     19  H3  CK6 d           2.129   2.167  27.901  0.00  0.00     0.035 H 
ENDBRANCH  12  16
BRANCH  14  20
ATOM     20  N7A CK6 d           3.801   6.355  28.909  0.00  0.00    -0.373 N 
ATOM     21  H4  CK6 d           4.076   5.904  29.792  0.00  0.00     0.161 HD
BRANCH  20  22
ATOM     22  C8A CK6 d           4.640   7.464  28.448  0.00  0.00    -0.019 C 
ATOM     23  H5  CK6 d           5.573   7.066  28.022  0.00  0.00     0.056 H 
ATOM     24  H6  CK6 d           4.876   8.122  29.297  0.00  0.00     0.056 H 
ATOM     25  H7  CK6 d           4.101   8.036  27.678  0.00  0.00     0.056 H 
ENDBRANCH  20  22
ENDBRANCH  14  20
ENDBRANCH   1  11
BRANCH   7  26
ATOM     26  C1B CK6 d          -1.161   8.763  23.892  0.00  0.00     0.049 A 
ATOM     27  C2B CK6 d          -0.115   9.045  24.789  0.00  0.00    -0.054 A 
ATOM     28  C3B CK6 d           0.732  10.122  24.680  0.00  0.00    -0.049 A 
ATOM     29  H11 CK6 d           0.034   8.367  25.621  0.00  0.00     0.087 H 
ATOM     30  C4B CK6 d           0.582  11.017  23.627  0.00  0.00     0.065 A 
ATOM     31  H12 CK6 d           1.515  10.273  25.414  0.00  0.00     0.087 H 
ATOM     32  C5B CK6 d          -0.446  10.801  22.685  0.00  0.00    -0.049 A 
ATOM     33  C6B CK6 d          -1.311   9.687  22.816  0.00  0.00    -0.054 A 
ATOM     34  H14 CK6 d          -0.575  11.490  21.857  0.00  0.00     0.087 H 
ATOM     35  H13 CK6 d          -2.099   9.535  22.088  0.00  0.00     0.087 H 
BRANCH  30  36
ATOM     36  O7B CK6 d           1.473  12.085  23.578  0.00  0.00    -0.361 OA
ATOM     37  H15 CK6 d           2.349  11.775  23.779  0.00  0.00     0.217 HD
ENDBRANCH  30  36
ENDBRANCH   7  26
TORSDOF 6
ENDMDL
MODEL 13
REMARK VINA RESULT:      -7.4      3.505      7.089
REMARK  6 active torsions:
REMARK  status: ('A' for Active; 'I' for Inactive)
REMARK    1  A    between atoms: C6A_1  and  C1A_2 
REMARK    2  A    between atoms: C3A_4  and  N7A_5 
REMARK    3  A    between atoms: N7A_5  and  C8A_6 
REMARK    4  A    between atoms: C5A_7  and  C4_9 
REMARK    5  A    between atoms: N7_15  and  C1B_16 
REMARK    6  A    between atoms: C4B_21  and  O7B_22 
ROOT
ATOM      1  C4  CK6 d           0.792   7.780  25.476  0.00  0.00     0.096 A 
ATOM      2  C5  CK6 d           0.776   6.588  26.214  0.00  0.00    -0.036 A 
ATOM      3  N3  CK6 d          -0.161   8.054  24.556  0.00  0.00    -0.061 NA
ATOM      4  C2  CK6 d          -1.173   7.169  24.308  0.00  0.00     0.727 A 
ATOM      5  N1  CK6 d          -1.275   5.978  24.980  0.00  0.00    -0.075 NA
ATOM      6  C6  CK6 d          -0.291   5.740  25.910  0.00  0.00     0.023 A 
ATOM      7  N7  CK6 d          -2.110   7.438  23.390  0.00  0.00    -0.188 N 
ATOM      8  H8  CK6 d           1.527   6.346  26.957  0.00  0.00     0.089 H 
ATOM      9  H9  CK6 d          -0.347   4.806  26.457  0.00  0.00     0.115 H 
ATOM     10  H10 CK6 d          -2.823   6.705  23.268  0.00  0.00     0.184 HD
ENDROOT
BRANCH   1  11
ATOM     11  C5A CK6 d           1.858   8.802  25.659  0.00  0.00     0.062 A 
ATOM     12  C1A CK6 d           3.039   8.844  26.340  0.00  0.00     0.053 A 
ATOM     13  N2A CK6 d           3.665  10.028  26.165  0.00  0.00    -0.228 NA
ATOM     14  C3A CK6 d           3.105  10.926  25.415  0.00  0.00     0.167 A 
ATOM     15  S4A CK6 d           1.582  10.346  24.775  0.00  0.00    -0.048 SA
BRANCH  12  16
ATOM     16  C6A CK6 d           3.757   7.856  27.211  0.00  0.00    -0.034 C 
ATOM     17  H1  CK6 d           3.273   6.872  27.126  0.00  0.00     0.035 H 
ATOM     18  H2  CK6 d           3.718   8.194  28.257  0.00  0.00     0.035 H 
ATOM     19  H3  CK6 d           4.806   7.778  26.890  0.00  0.00     0.035 H 
ENDBRANCH  12  16
BRANCH  14  20
ATOM     20  N7A CK6 d           3.685  12.102  25.214  0.00  0.00    -0.373 N 
ATOM     21  H4  CK6 d           4.709  12.136  25.323  0.00  0.00     0.161 HD
BRANCH  20  22
ATOM     22  C8A CK6 d           3.020  13.356  24.854  0.00  0.00    -0.019 C 
ATOM     23  H5  CK6 d           2.166  13.525  25.527  0.00  0.00     0.056 H 
ATOM     24  H6  CK6 d           2.663  13.297  23.815  0.00  0.00     0.056 H 
ATOM     25  H7  CK6 d           3.733  14.189  24.951  0.00  0.00     0.056 H 
ENDBRANCH  20  22
ENDBRANCH  14  20
ENDBRANCH   1  11
BRANCH   7  26
ATOM     26  C1B CK6 d          -2.268   8.558  22.573  0.00  0.00     0.049 A 
ATOM     27  C2B CK6 d          -1.310   8.941  21.617  0.00  0.00    -0.054 A 
ATOM     28  C3B CK6 d          -1.426  10.037  20.797  0.00  0.00    -0.049 A 
ATOM     29  H11 CK6 d          -0.419   8.330  21.521  0.00  0.00     0.087 H 
ATOM     30  C4B CK6 d          -2.552  10.848  20.882  0.00  0.00     0.065 A 
ATOM     31  H12 CK6 d          -0.642  10.270  20.086  0.00  0.00     0.087 H 
ATOM     32  C5B CK6 d          -3.560  10.528  21.817  0.00  0.00    -0.049 A 
ATOM     33  C6B CK6 d          -3.419   9.396  22.656  0.00  0.00    -0.054 A 
ATOM     34  H14 CK6 d          -4.445  11.150  21.893  0.00  0.00     0.087 H 
ATOM     35  H13 CK6 d          -4.198   9.163  23.373  0.00  0.00     0.087 H 
BRANCH  30  36
ATOM     36  O7B CK6 d          -2.605  11.942  20.022  0.00  0.00    -0.361 OA
ATOM     37  H15 CK6 d          -2.476  11.647  19.128  0.00  0.00     0.217 HD
ENDBRANCH  30  36
ENDBRANCH   7  26
TORSDOF 6
ENDMDL
MODEL 14
REMARK VINA RESULT:      -7.4      3.036      5.766
REMARK  6 active torsions:
REMARK  status: ('A' for Active; 'I' for Inactive)
REMARK    1  A    between atoms: C6A_1  and  C1A_2 
REMARK    2  A    between atoms: C3A_4  and  N7A_5 
REMARK    3  A    between atoms: N7A_5  and  C8A_6 
REMARK    4  A    between atoms: C5A_7  and  C4_9 
REMARK    5  A    between atoms: N7_15  and  C1B_16 
REMARK    6  A    between atoms: C4B_21  and  O7B_22 
ROOT
ATOM      1  C4  CK6 d           4.133   9.128  27.189  0.00  0.00     0.096 A 
ATOM      2  C5  CK6 d           5.323   9.478  27.842  0.00  0.00    -0.036 A 
ATOM      3  N3  CK6 d           3.515   7.949  27.432  0.00  0.00    -0.061 NA
ATOM      4  C2  CK6 d           4.036   7.052  28.321  0.00  0.00     0.727 A 
ATOM      5  N1  CK6 d           5.195   7.305  29.011  0.00  0.00    -0.075 NA
ATOM      6  C6  CK6 d           5.790   8.514  28.739  0.00  0.00     0.023 A 
ATOM      7  N7  CK6 d           3.428   5.882  28.553  0.00  0.00    -0.188 N 
ATOM      8  H8  CK6 d           5.837  10.415  27.666  0.00  0.00     0.089 H 
ATOM      9  H9  CK6 d           6.707   8.741  29.271  0.00  0.00     0.115 H 
ATOM     10  H10 CK6 d           3.903   5.270  29.231  0.00  0.00     0.184 HD
ENDROOT
BRANCH   1  11
ATOM     11  C5A CK6 d           3.492  10.026  26.191  0.00  0.00     0.062 A 
ATOM     12  C1A CK6 d           3.692  11.315  25.793  0.00  0.00     0.053 A 
ATOM     13  N2A CK6 d           2.833  11.666  24.813  0.00  0.00    -0.228 NA
ATOM     14  C3A CK6 d           1.975  10.789  24.391  0.00  0.00     0.167 A 
ATOM     15  S4A CK6 d           2.155   9.274  25.250  0.00  0.00    -0.048 SA
BRANCH  12  16
ATOM     16  C6A CK6 d           4.659  12.381  26.218  0.00  0.00    -0.034 C 
ATOM     17  H1  CK6 d           5.415  12.525  25.432  0.00  0.00     0.035 H 
ATOM     18  H2  CK6 d           5.154  12.076  27.152  0.00  0.00     0.035 H 
ATOM     19  H3  CK6 d           4.116  13.324  26.382  0.00  0.00     0.035 H 
ENDBRANCH  12  16
BRANCH  14  20
ATOM     20  N7A CK6 d           1.114  11.090  23.428  0.00  0.00    -0.373 N 
ATOM     21  H4  CK6 d           1.482  11.629  22.631  0.00  0.00     0.161 HD
BRANCH  20  22
ATOM     22  C8A CK6 d          -0.307  10.735  23.381  0.00  0.00    -0.019 C 
ATOM     23  H5  CK6 d          -0.911  11.651  23.303  0.00  0.00     0.056 H 
ATOM     24  H6  CK6 d          -0.579  10.193  24.299  0.00  0.00     0.056 H 
ATOM     25  H7  CK6 d          -0.496  10.095  22.506  0.00  0.00     0.056 H 
ENDBRANCH  20  22
ENDBRANCH  14  20
ENDBRANCH   1  11
BRANCH   7  26
ATOM     26  C1B CK6 d           2.248   5.365  28.017  0.00  0.00     0.049 A 
ATOM     27  C2B CK6 d           1.253   6.179  27.445  0.00  0.00    -0.054 A 
ATOM     28  C3B CK6 d           0.078   5.709  26.911  0.00  0.00    -0.049 A 
ATOM     29  H11 CK6 d           1.426   7.249  27.425  0.00  0.00     0.087 H 
ATOM     30  C4B CK6 d          -0.186   4.344  26.912  0.00  0.00     0.065 A 
ATOM     31  H12 CK6 d          -0.642   6.401  26.490  0.00  0.00     0.087 H 
ATOM     32  C5B CK6 d           0.765   3.462  27.468  0.00  0.00    -0.049 A 
ATOM     33  C6B CK6 d           1.968   3.966  28.017  0.00  0.00    -0.054 A 
ATOM     34  H14 CK6 d           0.574   2.394  27.474  0.00  0.00     0.087 H 
ATOM     35  H13 CK6 d           2.689   3.278  28.445  0.00  0.00     0.087 H 
BRANCH  30  36
ATOM     36  O7B CK6 d          -1.396   3.937  26.355  0.00  0.00    -0.361 OA
ATOM     37  H15 CK6 d          -1.619   3.074  26.682  0.00  0.00     0.217 HD
ENDBRANCH  30  36
ENDBRANCH   7  26
TORSDOF 6
ENDMDL
MODEL 15
REMARK VINA RESULT:      -7.4      3.039      6.196
REMARK  6 active torsions:
REMARK  status: ('A' for Active; 'I' for Inactive)
REMARK    1  A    between atoms: C6A_1  and  C1A_2 
REMARK    2  A    between atoms: C3A_4  and  N7A_5 
REMARK    3  A    between atoms: N7A_5  and  C8A_6 
REMARK    4  A    between atoms: C5A_7  and  C4_9 
REMARK    5  A    between atoms: N7_15  and  C1B_16 
REMARK    6  A    between atoms: C4B_21  and  O7B_22 
ROOT
ATOM      1  C4  CK6 d          -1.483   8.455  23.827  0.00  0.00     0.096 A 
ATOM      2  C5  CK6 d          -2.598   8.137  23.039  0.00  0.00    -0.036 A 
ATOM      3  N3  CK6 d          -0.812   9.619  23.664  0.00  0.00    -0.061 NA
ATOM      4  C2  CK6 d          -1.197  10.525  22.717  0.00  0.00     0.727 A 
ATOM      5  N1  CK6 d          -2.277  10.305  21.900  0.00  0.00    -0.075 NA
ATOM      6  C6  CK6 d          -2.934   9.114  22.099  0.00  0.00     0.023 A 
ATOM      7  N7  CK6 d          -0.526  11.672  22.551  0.00  0.00    -0.188 N 
ATOM      8  H8  CK6 d          -3.153   7.213  23.151  0.00  0.00     0.089 H 
ATOM      9  H9  CK6 d          -3.792   8.915  21.468  0.00  0.00     0.115 H 
ATOM     10  H10 CK6 d          -0.886  12.284  21.805  0.00  0.00     0.184 HD
ENDROOT
BRANCH   1  11
ATOM     11  C5A CK6 d          -0.973   7.531  24.875  0.00  0.00     0.062 A 
ATOM     12  C1A CK6 d          -1.484   6.449  25.531  0.00  0.00     0.053 A 
ATOM     13  N2A CK6 d          -0.590   5.934  26.401  0.00  0.00    -0.228 NA
ATOM     14  C3A CK6 d           0.577   6.492  26.501  0.00  0.00     0.167 A 
ATOM     15  S4A CK6 d           0.711   7.860  25.417  0.00  0.00    -0.048 SA
BRANCH  12  16
ATOM     16  C6A CK6 d          -2.805   5.740  25.466  0.00  0.00    -0.034 C 
ATOM     17  H1  CK6 d          -2.974   5.192  26.404  0.00  0.00     0.035 H 
ATOM     18  H2  CK6 d          -2.800   5.032  24.624  0.00  0.00     0.035 H 
ATOM     19  H3  CK6 d          -3.609   6.476  25.321  0.00  0.00     0.035 H 
ENDBRANCH  12  16
BRANCH  14  20
ATOM     20  N7A CK6 d           1.487   6.018  27.342  0.00  0.00    -0.373 N 
ATOM     21  H4  CK6 d           2.201   6.682  27.673  0.00  0.00     0.161 HD
BRANCH  20  22
ATOM     22  C8A CK6 d           1.580   4.647  27.849  0.00  0.00    -0.019 C 
ATOM     23  H5  CK6 d           2.111   4.020  27.117  0.00  0.00     0.056 H 
ATOM     24  H6  CK6 d           0.568   4.245  28.009  0.00  0.00     0.056 H 
ATOM     25  H7  CK6 d           2.131   4.645  28.801  0.00  0.00     0.056 H 
ENDBRANCH  20  22
ENDBRANCH  14  20
ENDBRANCH   1  11
BRANCH   7  26
ATOM     26  C1B CK6 d           0.587  12.166  23.234  0.00  0.00     0.049 A 
ATOM     27  C2B CK6 d           1.542  11.326  23.835  0.00  0.00    -0.054 A 
ATOM     28  C3B CK6 d           2.647  11.772  24.519  0.00  0.00    -0.049 A 
ATOM     29  H11 CK6 d           1.396  10.255  23.753  0.00  0.00     0.087 H 
ATOM     30  C4B CK6 d           2.877  13.137  24.647  0.00  0.00     0.065 A 
ATOM     31  H12 CK6 d           3.338  11.061  24.957  0.00  0.00     0.087 H 
ATOM     32  C5B CK6 d           1.963  14.044  24.069  0.00  0.00    -0.049 A 
ATOM     33  C6B CK6 d           0.828  13.564  23.372  0.00  0.00    -0.054 A 
ATOM     34  H14 CK6 d           2.131  15.112  24.160  0.00  0.00     0.087 H 
ATOM     35  H13 CK6 d           0.131  14.272  22.937  0.00  0.00     0.087 H 
BRANCH  30  36
ATOM     36  O7B CK6 d           4.016  13.519  25.352  0.00  0.00    -0.361 OA
ATOM     37  H15 CK6 d           4.789  13.202  24.898  0.00  0.00     0.217 HD
ENDBRANCH  30  36
ENDBRANCH   7  26
TORSDOF 6
ENDMDL
MODEL 16
REMARK VINA RESULT:      -7.3      3.709      7.709
REMARK  6 active torsions:
REMARK  status: ('A' for Active; 'I' for Inactive)
REMARK    1  A    between atoms: C6A_1  and  C1A_2 
REMARK    2  A    between atoms: C3A_4  and  N7A_5 
REMARK    3  A    between atoms: N7A_5  and  C8A_6 
REMARK    4  A    between atoms: C5A_7  and  C4_9 
REMARK    5  A    between atoms: N7_15  and  C1B_16 
REMARK    6  A    between atoms: C4B_21  and  O7B_22 
ROOT
ATOM      1  C4  CK6 d           0.924   8.903  25.093  0.00  0.00     0.096 A 
ATOM      2  C5  CK6 d           2.070   9.632  25.440  0.00  0.00    -0.036 A 
ATOM      3  N3  CK6 d           0.052   9.359  24.164  0.00  0.00    -0.061 NA
ATOM      4  C2  CK6 d           0.257  10.555  23.535  0.00  0.00     0.727 A 
ATOM      5  N1  CK6 d           1.351  11.338  23.806  0.00  0.00    -0.075 NA
ATOM      6  C6  CK6 d           2.214  10.838  24.751  0.00  0.00     0.023 A 
ATOM      7  N7  CK6 d          -0.611  11.009  22.623  0.00  0.00    -0.188 N 
ATOM      8  H8  CK6 d           2.784   9.288  26.180  0.00  0.00     0.089 H 
ATOM      9  H9  CK6 d           3.088  11.436  24.984  0.00  0.00     0.115 H 
ATOM     10  H10 CK6 d          -0.376  11.924  22.213  0.00  0.00     0.184 HD
ENDROOT
BRANCH   1  11
ATOM     11  C5A CK6 d           0.600   7.598  25.729  0.00  0.00     0.062 A 
ATOM     12  C1A CK6 d          -0.426   6.706  25.620  0.00  0.00     0.053 A 
ATOM     13  N2A CK6 d          -0.235   5.636  26.421  0.00  0.00    -0.228 NA
ATOM     14  C3A CK6 d           0.835   5.587  27.152  0.00  0.00     0.167 A 
ATOM     15  S4A CK6 d           1.830   7.006  26.903  0.00  0.00    -0.048 SA
BRANCH  12  16
ATOM     16  C6A CK6 d          -1.682   6.683  24.799  0.00  0.00    -0.034 C 
ATOM     17  H1  CK6 d          -2.385   7.436  25.183  0.00  0.00     0.035 H 
ATOM     18  H2  CK6 d          -2.142   5.686  24.861  0.00  0.00     0.035 H 
ATOM     19  H3  CK6 d          -1.438   6.910  23.750  0.00  0.00     0.035 H 
ENDBRANCH  12  16
BRANCH  14  20
ATOM     20  N7A CK6 d           1.064   4.554  27.953  0.00  0.00    -0.373 N 
ATOM     21  H4  CK6 d           1.091   4.750  28.963  0.00  0.00     0.161 HD
BRANCH  20  22
ATOM     22  C8A CK6 d           1.280   3.163  27.547  0.00  0.00    -0.019 C 
ATOM     23  H5  CK6 d           2.314   2.869  27.785  0.00  0.00     0.056 H 
ATOM     24  H6  CK6 d           1.111   3.066  26.465  0.00  0.00     0.056 H 
ATOM     25  H7  CK6 d           0.580   2.510  28.089  0.00  0.00     0.056 H 
ENDBRANCH  20  22
ENDBRANCH  14  20
ENDBRANCH   1  11
BRANCH   7  26
ATOM     26  C1B CK6 d          -1.788  10.433  22.141  0.00  0.00     0.049 A 
ATOM     27  C2B CK6 d          -1.852   9.755  20.911  0.00  0.00    -0.054 A 
ATOM     28  C3B CK6 d          -2.990   9.178  20.401  0.00  0.00    -0.049 A 
ATOM     29  H11 CK6 d          -0.942   9.683  20.325  0.00  0.00     0.087 H 
ATOM     30  C4B CK6 d          -4.179   9.241  21.118  0.00  0.00     0.065 A 
ATOM     31  H12 CK6 d          -2.960   8.674  19.441  0.00  0.00     0.087 H 
ATOM     32  C5B CK6 d          -4.195   9.904  22.363  0.00  0.00    -0.049 A 
ATOM     33  C6B CK6 d          -3.012  10.496  22.869  0.00  0.00    -0.054 A 
ATOM     34  H14 CK6 d          -5.114   9.961  22.935  0.00  0.00     0.087 H 
ATOM     35  H13 CK6 d          -3.038  11.007  23.826  0.00  0.00     0.087 H 
BRANCH  30  36
ATOM     36  O7B CK6 d          -5.293   8.635  20.542  0.00  0.00    -0.361 OA
ATOM     37  H15 CK6 d          -5.918   8.413  21.223  0.00  0.00     0.217 HD
ENDBRANCH  30  36
ENDBRANCH   7  26
TORSDOF 6
ENDMDL
MODEL 17
REMARK VINA RESULT:      -7.1      3.194      7.309
REMARK  6 active torsions:
REMARK  status: ('A' for Active; 'I' for Inactive)
REMARK    1  A    between atoms: C6A_1  and  C1A_2 
REMARK    2  A    between atoms: C3A_4  and  N7A_5 
REMARK    3  A    between atoms: N7A_5  and  C8A_6 
REMARK    4  A    between atoms: C5A_7  and  C4_9 
REMARK    5  A    between atoms: N7_15  and  C1B_16 
REMARK    6  A    between atoms: C4B_21  and  O7B_22 
ROOT
ATOM      1  C4  CK6 d           2.422   9.783  25.556  0.00  0.00     0.096 A 
ATOM      2  C5  CK6 d           2.171  10.899  24.746  0.00  0.00    -0.036 A 
ATOM      3  N3  CK6 d           1.596   8.711  25.559  0.00  0.00    -0.061 NA
ATOM      4  C2  CK6 d           0.479   8.684  24.773  0.00  0.00     0.727 A 
ATOM      5  N1  CK6 d           0.149   9.727  23.945  0.00  0.00    -0.075 NA
ATOM      6  C6  CK6 d           1.016  10.794  23.968  0.00  0.00     0.023 A 
ATOM      7  N7  CK6 d          -0.343   7.626  24.783  0.00  0.00    -0.188 N 
ATOM      8  H8  CK6 d           2.817  11.768  24.726  0.00  0.00     0.089 H 
ATOM      9  H9  CK6 d           0.781  11.632  23.323  0.00  0.00     0.115 H 
ATOM     10  H10 CK6 d          -1.163   7.705  24.166  0.00  0.00     0.184 HD
ENDROOT
BRANCH   1  11
ATOM     11  C5A CK6 d           3.603   9.718  26.460  0.00  0.00     0.062 A 
ATOM     12  C1A CK6 d           4.592  10.591  26.809  0.00  0.00     0.053 A 
ATOM     13  N2A CK6 d           5.438  10.041  27.706  0.00  0.00    -0.228 NA
ATOM     14  C3A CK6 d           5.221   8.826  28.106  0.00  0.00     0.167 A 
ATOM     15  S4A CK6 d           3.797   8.158  27.336  0.00  0.00    -0.048 SA
BRANCH  12  16
ATOM     16  C6A CK6 d           4.904  12.002  26.406  0.00  0.00    -0.034 C 
ATOM     17  H1  CK6 d           5.902  12.039  25.945  0.00  0.00     0.035 H 
ATOM     18  H2  CK6 d           4.886  12.649  27.295  0.00  0.00     0.035 H 
ATOM     19  H3  CK6 d           4.153  12.351  25.682  0.00  0.00     0.035 H 
ENDBRANCH  12  16
BRANCH  14  20
ATOM     20  N7A CK6 d           6.026   8.247  28.987  0.00  0.00    -0.373 N 
ATOM     21  H4  CK6 d           6.990   8.058  28.678  0.00  0.00     0.161 HD
BRANCH  20  22
ATOM     22  C8A CK6 d           5.686   7.851  30.356  0.00  0.00    -0.019 C 
ATOM     23  H5  CK6 d           4.832   7.157  30.335  0.00  0.00     0.056 H 
ATOM     24  H6  CK6 d           5.419   8.744  30.940  0.00  0.00     0.056 H 
ATOM     25  H7  CK6 d           6.551   7.353  30.819  0.00  0.00     0.056 H 
ENDBRANCH  20  22
ENDBRANCH  14  20
ENDBRANCH   1  11
BRANCH   7  26
ATOM     26  C1B CK6 d          -0.258   6.434  25.503  0.00  0.00     0.049 A 
ATOM     27  C2B CK6 d          -1.042   5.306  25.198  0.00  0.00    -0.054 A 
ATOM     28  C3B CK6 d          -0.991   4.117  25.884  0.00  0.00    -0.049 A 
ATOM     29  H11 CK6 d          -1.733   5.381  24.366  0.00  0.00     0.087 H 
ATOM     30  C4B CK6 d          -0.117   3.973  26.956  0.00  0.00     0.065 A 
ATOM     31  H12 CK6 d          -1.630   3.292  25.590  0.00  0.00     0.087 H 
ATOM     32  C5B CK6 d           0.704   5.060  27.323  0.00  0.00    -0.049 A 
ATOM     33  C6B CK6 d           0.633   6.279  26.606  0.00  0.00    -0.054 A 
ATOM     34  H14 CK6 d           1.391   4.963  28.156  0.00  0.00     0.087 H 
ATOM     35  H13 CK6 d           1.266   7.109  26.900  0.00  0.00     0.087 H 
BRANCH  30  36
ATOM     36  O7B CK6 d          -0.117   2.741  27.606  0.00  0.00    -0.361 OA
ATOM     37  H15 CK6 d           0.728   2.323  27.488  0.00  0.00     0.217 HD
ENDBRANCH  30  36
ENDBRANCH   7  26
TORSDOF 6
ENDMDL
MODEL 18
REMARK VINA RESULT:      -7.0      3.177      5.038
REMARK  6 active torsions:
REMARK  status: ('A' for Active; 'I' for Inactive)
REMARK    1  A    between atoms: C6A_1  and  C1A_2 
REMARK    2  A    between atoms: C3A_4  and  N7A_5 
REMARK    3  A    between atoms: N7A_5  and  C8A_6 
REMARK    4  A    between atoms: C5A_7  and  C4_9 
REMARK    5  A    between atoms: N7_15  and  C1B_16 
REMARK    6  A    between atoms: C4B_21  and  O7B_22 
ROOT
ATOM      1  C4  CK6 d           2.308   6.928  27.099  0.00  0.00     0.096 A 
ATOM      2  C5  CK6 d           3.370   6.598  27.953  0.00  0.00    -0.036 A 
ATOM      3  N3  CK6 d           2.291   8.092  26.409  0.00  0.00    -0.061 NA
ATOM      4  C2  CK6 d           3.311   8.993  26.528  0.00  0.00     0.727 A 
ATOM      5  N1  CK6 d           4.394   8.760  27.337  0.00  0.00    -0.075 NA
ATOM      6  C6  CK6 d           4.376   7.565  28.016  0.00  0.00     0.023 A 
ATOM      7  N7  CK6 d           3.288  10.149  25.852  0.00  0.00    -0.188 N 
ATOM      8  H8  CK6 d           3.407   5.673  28.515  0.00  0.00     0.089 H 
ATOM      9  H9  CK6 d           5.221   7.354  28.662  0.00  0.00     0.115 H 
ATOM     10  H10 CK6 d           4.096  10.767  26.016  0.00  0.00     0.184 HD
ENDROOT
BRANCH   1  11
ATOM     11  C5A CK6 d           1.142   6.023  26.911  0.00  0.00     0.062 A 
ATOM     12  C1A CK6 d           0.812   4.778  27.361  0.00  0.00     0.053 A 
ATOM     13  N2A CK6 d          -0.401   4.397  26.907  0.00  0.00    -0.228 NA
ATOM     14  C3A CK6 d          -1.067   5.210  26.147  0.00  0.00     0.167 A 
ATOM     15  S4A CK6 d          -0.174   6.693  25.882  0.00  0.00    -0.048 SA
BRANCH  12  16
ATOM     16  C6A CK6 d           1.514   3.786  28.242  0.00  0.00    -0.034 C 
ATOM     17  H1  CK6 d           2.356   3.340  27.694  0.00  0.00     0.035 H 
ATOM     18  H2  CK6 d           0.808   2.996  28.537  0.00  0.00     0.035 H 
ATOM     19  H3  CK6 d           1.889   4.297  29.141  0.00  0.00     0.035 H 
ENDBRANCH  12  16
BRANCH  14  20
ATOM     20  N7A CK6 d          -2.263   4.877  25.680  0.00  0.00    -0.373 N 
ATOM     21  H4  CK6 d          -2.351   3.941  25.260  0.00  0.00     0.161 HD
BRANCH  20  22
ATOM     22  C8A CK6 d          -3.473   5.703  25.701  0.00  0.00    -0.019 C 
ATOM     23  H5  CK6 d          -4.342   5.088  25.427  0.00  0.00     0.056 H 
ATOM     24  H6  CK6 d          -3.366   6.528  24.981  0.00  0.00     0.056 H 
ATOM     25  H7  CK6 d          -3.618   6.114  26.712  0.00  0.00     0.056 H 
ENDBRANCH  20  22
ENDBRANCH  14  20
ENDBRANCH   1  11
BRANCH   7  26
ATOM     26  C1B CK6 d           2.338  10.645  24.959  0.00  0.00     0.049 A 
ATOM     27  C2B CK6 d           2.504  11.862  24.272  0.00  0.00    -0.054 A 
ATOM     28  C3B CK6 d           1.591  12.386  23.389  0.00  0.00    -0.049 A 
ATOM     29  H11 CK6 d           3.413  12.423  24.452  0.00  0.00     0.087 H 
ATOM     30  C4B CK6 d           0.412  11.699  23.124  0.00  0.00     0.065 A 
ATOM     31  H12 CK6 d           1.790  13.332  22.900  0.00  0.00     0.087 H 
ATOM     32  C5B CK6 d           0.173  10.470  23.774  0.00  0.00    -0.049 A 
ATOM     33  C6B CK6 d           1.124   9.949  24.684  0.00  0.00    -0.054 A 
ATOM     34  H14 CK6 d          -0.742   9.922  23.576  0.00  0.00     0.087 H 
ATOM     35  H13 CK6 d           0.927   9.005  25.180  0.00  0.00     0.087 H 
BRANCH  30  36
ATOM     36  O7B CK6 d          -0.468  12.287  22.219  0.00  0.00    -0.361 OA
ATOM     37  H15 CK6 d          -0.996  12.937  22.669  0.00  0.00     0.217 HD
ENDBRANCH  30  36
ENDBRANCH   7  26
TORSDOF 6
ENDMDL
MODEL 19
REMARK VINA RESULT:      -7.0      3.470      5.839
REMARK  6 active torsions:
REMARK  status: ('A' for Active; 'I' for Inactive)
REMARK    1  A    between atoms: C6A_1  and  C1A_2 
REMARK    2  A    between atoms: C3A_4  and  N7A_5 
REMARK    3  A    between atoms: N7A_5  and  C8A_6 
REMARK    4  A    between atoms: C5A_7  and  C4_9 
REMARK    5  A    between atoms: N7_15  and  C1B_16 
REMARK    6  A    between atoms: C4B_21  and  O7B_22 
ROOT
ATOM      1  C4  CK6 d           3.990   8.854  27.335  0.00  0.00     0.096 A 
ATOM      2  C5  CK6 d           5.123   9.201  28.085  0.00  0.00    -0.036 A 
ATOM      3  N3  CK6 d           3.335   7.688  27.545  0.00  0.00    -0.061 NA
ATOM      4  C2  CK6 d           3.762   6.804  28.495  0.00  0.00     0.727 A 
ATOM      5  N1  CK6 d           4.859   7.056  29.280  0.00  0.00    -0.075 NA
ATOM      6  C6  CK6 d           5.493   8.251  29.039  0.00  0.00     0.023 A 
ATOM      7  N7  CK6 d           3.117   5.647  28.696  0.00  0.00    -0.188 N 
ATOM      8  H8  CK6 d           5.664  10.128  27.936  0.00  0.00     0.089 H 
ATOM      9  H9  CK6 d           6.362   8.477  29.645  0.00  0.00     0.115 H 
ATOM     10  H10 CK6 d           3.522   5.043  29.425  0.00  0.00     0.184 HD
ENDROOT
BRANCH   1  11
ATOM     11  C5A CK6 d           3.453   9.739  26.267  0.00  0.00     0.062 A 
ATOM     12  C1A CK6 d           2.481   9.616  25.318  0.00  0.00     0.053 A 
ATOM     13  N2A CK6 d           2.364  10.744  24.585  0.00  0.00    -0.228 NA
ATOM     14  C3A CK6 d           3.139  11.748  24.856  0.00  0.00     0.167 A 
ATOM     15  S4A CK6 d           4.212  11.369  26.187  0.00  0.00    -0.048 SA
BRANCH  12  16
ATOM     16  C6A CK6 d           1.541   8.505  24.951  0.00  0.00    -0.034 C 
ATOM     17  H1  CK6 d           0.562   8.927  24.681  0.00  0.00     0.035 H 
ATOM     18  H2  CK6 d           1.425   7.825  25.807  0.00  0.00     0.035 H 
ATOM     19  H3  CK6 d           1.949   7.949  24.094  0.00  0.00     0.035 H 
ENDBRANCH  12  16
BRANCH  14  20
ATOM     20  N7A CK6 d           3.057  12.875  24.162  0.00  0.00    -0.373 N 
ATOM     21  H4  CK6 d           2.382  12.891  23.384  0.00  0.00     0.161 HD
BRANCH  20  22
ATOM     22  C8A CK6 d           3.827  14.101  24.388  0.00  0.00    -0.019 C 
ATOM     23  H5  CK6 d           3.570  14.843  23.618  0.00  0.00     0.056 H 
ATOM     24  H6  CK6 d           4.902  13.873  24.333  0.00  0.00     0.056 H 
ATOM     25  H7  CK6 d           3.588  14.506  25.383  0.00  0.00     0.056 H 
ENDBRANCH  20  22
ENDBRANCH  14  20
ENDBRANCH   1  11
BRANCH   7  26
ATOM     26  C1B CK6 d           1.982   5.134  28.067  0.00  0.00     0.049 A 
ATOM     27  C2B CK6 d           1.003   5.956  27.481  0.00  0.00    -0.054 A 
ATOM     28  C3B CK6 d          -0.129   5.491  26.857  0.00  0.00    -0.049 A 
ATOM     29  H11 CK6 d           1.152   7.029  27.524  0.00  0.00     0.087 H 
ATOM     30  C4B CK6 d          -0.361   4.123  26.774  0.00  0.00     0.065 A 
ATOM     31  H12 CK6 d          -0.840   6.189  26.430  0.00  0.00     0.087 H 
ATOM     32  C5B CK6 d           0.577   3.233  27.338  0.00  0.00    -0.049 A 
ATOM     33  C6B CK6 d           1.735   3.732  27.981  0.00  0.00    -0.054 A 
ATOM     34  H14 CK6 d           0.410   2.163  27.280  0.00  0.00     0.087 H 
ATOM     35  H13 CK6 d           2.447   3.038  28.414  0.00  0.00     0.087 H 
BRANCH  30  36
ATOM     36  O7B CK6 d          -1.528   3.721  26.128  0.00  0.00    -0.361 OA
ATOM     37  H15 CK6 d          -2.277   4.122  26.552  0.00  0.00     0.217 HD
ENDBRANCH  30  36
ENDBRANCH   7  26
TORSDOF 6
ENDMDL
MODEL 20
REMARK VINA RESULT:      -6.9      3.436      5.963
REMARK  6 active torsions:
REMARK  status: ('A' for Active; 'I' for Inactive)
REMARK    1  A    between atoms: C6A_1  and  C1A_2 
REMARK    2  A    between atoms: C3A_4  and  N7A_5 
REMARK    3  A    between atoms: N7A_5  and  C8A_6 
REMARK    4  A    between atoms: C5A_7  and  C4_9 
REMARK    5  A    between atoms: N7_15  and  C1B_16 
REMARK    6  A    between atoms: C4B_21  and  O7B_22 
ROOT
ATOM      1  C4  CK6 d           2.135   9.459  25.520  0.00  0.00     0.096 A 
ATOM      2  C5  CK6 d           3.351   9.793  26.130  0.00  0.00    -0.036 A 
ATOM      3  N3  CK6 d           1.518   8.280  25.772  0.00  0.00    -0.061 NA
ATOM      4  C2  CK6 d           2.069   7.370  26.629  0.00  0.00     0.727 A 
ATOM      5  N1  CK6 d           3.255   7.607  27.276  0.00  0.00    -0.075 NA
ATOM      6  C6  CK6 d           3.846   8.816  26.996  0.00  0.00     0.023 A 
ATOM      7  N7  CK6 d           1.462   6.200  26.871  0.00  0.00    -0.188 N 
ATOM      8  H8  CK6 d           3.863  10.730  25.946  0.00  0.00     0.089 H 
ATOM      9  H9  CK6 d           4.784   9.031  27.495  0.00  0.00     0.115 H 
ATOM     10  H10 CK6 d           1.960   5.577  27.522  0.00  0.00     0.184 HD
ENDROOT
BRANCH   1  11
ATOM     11  C5A CK6 d           1.460  10.373  24.559  0.00  0.00     0.062 A 
ATOM     12  C1A CK6 d           1.717  11.627  24.088  0.00  0.00     0.053 A 
ATOM     13  N2A CK6 d           0.785  12.015  23.191  0.00  0.00    -0.228 NA
ATOM     14  C3A CK6 d          -0.180  11.199  22.900  0.00  0.00     0.167 A 
ATOM     15  S4A CK6 d          -0.027   9.704  23.798  0.00  0.00    -0.048 SA
BRANCH  12  16
ATOM     16  C6A CK6 d           2.805  12.623  24.361  0.00  0.00    -0.034 C 
ATOM     17  H1  CK6 d           3.118  13.093  23.417  0.00  0.00     0.035 H 
ATOM     18  H2  CK6 d           3.664  12.110  24.818  0.00  0.00     0.035 H 
ATOM     19  H3  CK6 d           2.431  13.395  25.049  0.00  0.00     0.035 H 
ENDBRANCH  12  16
BRANCH  14  20
ATOM     20  N7A CK6 d          -1.116  11.538  22.023  0.00  0.00    -0.373 N 
ATOM     21  H4  CK6 d          -1.547  12.465  22.143  0.00  0.00     0.161 HD
BRANCH  20  22
ATOM     22  C8A CK6 d          -1.598  10.729  20.900  0.00  0.00    -0.019 C 
ATOM     23  H5  CK6 d          -1.155  11.101  19.964  0.00  0.00     0.056 H 
ATOM     24  H6  CK6 d          -2.694  10.801  20.841  0.00  0.00     0.056 H 
ATOM     25  H7  CK6 d          -1.306   9.680  21.053  0.00  0.00     0.056 H 
ENDBRANCH  20  22
ENDBRANCH  14  20
ENDBRANCH   1  11
BRANCH   7  26
ATOM     26  C1B CK6 d           0.259   5.696  26.375  0.00  0.00     0.049 A 
ATOM     27  C2B CK6 d          -0.605   6.455  25.564  0.00  0.00    -0.054 A 
ATOM     28  C3B CK6 d          -1.798   5.998  25.060  0.00  0.00    -0.049 A 
ATOM     29  H11 CK6 d          -0.309   7.470  25.321  0.00  0.00     0.087 H 
ATOM     30  C4B CK6 d          -2.217   4.703  25.342  0.00  0.00     0.065 A 
ATOM     31  H12 CK6 d          -2.411   6.645  24.444  0.00  0.00     0.087 H 
ATOM     32  C5B CK6 d          -1.404   3.878  26.148  0.00  0.00    -0.049 A 
ATOM     33  C6B CK6 d          -0.179   4.370  26.662  0.00  0.00    -0.054 A 
ATOM     34  H14 CK6 d          -1.717   2.865  26.376  0.00  0.00     0.087 H 
ATOM     35  H13 CK6 d           0.435   3.728  27.284  0.00  0.00     0.087 H 
BRANCH  30  36
ATOM     36  O7B CK6 d          -3.436   4.304  24.799  0.00  0.00    -0.361 OA
ATOM     37  H15 CK6 d          -3.587   3.388  25.002  0.00  0.00     0.217 HD
ENDBRANCH  30  36
ENDBRANCH   7  26
TORSDOF 6
ENDMDL
