MODEL 1
REMARK VINA RESULT:      -7.5      0.000      0.000
REMARK  1 active torsions:
REMARK  status: ('A' for Active; 'I' for Inactive)
REMARK    1  A    between atoms: C3_3  and  N15_15 
ROOT
ATOM      1  C1  PRL d           8.877  23.319  49.536  0.00  0.00    -0.069 A 
ATOM      2  C2  PRL d           9.615  23.703  48.496  0.00  0.00    -0.057 A 
ATOM      3  C3  PRL d          10.654  22.864  47.941  0.00  0.00     0.028 A 
ATOM      4  C4  PRL d          10.879  21.636  48.534  0.00  0.00    -0.029 A 
ATOM      5  C5  PRL d           9.804  18.180  51.676  0.00  0.00    -0.029 A 
ATOM      6  C6  PRL d           9.049  17.650  52.707  0.00  0.00     0.028 A 
ATOM      7  C7  PRL d           7.996  18.468  53.271  0.00  0.00    -0.057 A 
ATOM      8  C8  PRL d           7.746  19.700  52.823  0.00  0.00    -0.069 A 
ATOM      9  C9  PRL d           8.309  21.544  51.213  0.00  0.00    -0.059 A 
ATOM     10  N10 PRL d          10.302  19.970  50.162  0.00  0.00    -0.247 NA
ATOM     11  C11 PRL d          10.122  21.218  49.608  0.00  0.00     0.070 A 
ATOM     12  C12 PRL d           8.517  20.281  51.744  0.00  0.00    -0.006 A 
ATOM     13  C13 PRL d           9.073  22.036  50.167  0.00  0.00    -0.006 A 
ATOM     14  C14 PRL d           9.561  19.449  51.199  0.00  0.00     0.070 A 
ATOM     15  N16 PRL d           9.267  16.397  53.171  0.00  0.00    -0.399 N 
ATOM     16  H1  PRL d           8.113  23.985  49.918  0.00  0.00     0.085 H 
ATOM     17  H2  PRL d           9.431  24.675  48.051  0.00  0.00     0.086 H 
ATOM     18  H3  PRL d          11.663  20.992  48.150  0.00  0.00     0.090 H 
ATOM     19  H4  PRL d          10.598  17.587  51.236  0.00  0.00     0.090 H 
ATOM     20  H5  PRL d           7.394  18.070  54.080  0.00  0.00     0.086 H 
ATOM     21  H6  PRL d           6.949  20.278  53.277  0.00  0.00     0.085 H 
ATOM     22  H7  PRL d           7.525  22.167  51.629  0.00  0.00     0.086 H 
ATOM     23  H10 PRL d          10.018  15.821  52.764  0.00  0.00     0.156 HD
ATOM     24  H11 PRL d           8.681  16.019  53.929  0.00  0.00     0.156 HD
ENDROOT
BRANCH   3  25
ATOM     25  N15 PRL d          11.316  23.249  46.827  0.00  0.00    -0.399 N 
ATOM     26  H8  PRL d          10.976  24.051  46.277  0.00  0.00     0.156 HD
ATOM     27  H9  PRL d          12.161  22.741  46.528  0.00  0.00     0.156 HD
ENDBRANCH   3  25
TORSDOF 1
ENDMDL
MODEL 2
REMARK VINA RESULT:      -7.4      0.129      5.666
REMARK  1 active torsions:
REMARK  status: ('A' for Active; 'I' for Inactive)
REMARK    1  A    between atoms: C3_3  and  N15_15 
ROOT
ATOM      1  C1  PRL d           7.768  19.711  52.774  0.00  0.00    -0.069 A 
ATOM      2  C2  PRL d           8.048  18.498  53.246  0.00  0.00    -0.057 A 
ATOM      3  C3  PRL d           9.061  17.657  52.648  0.00  0.00     0.028 A 
ATOM      4  C4  PRL d           9.737  18.144  51.545  0.00  0.00    -0.029 A 
ATOM      5  C5  PRL d          10.790  21.605  48.400  0.00  0.00    -0.029 A 
ATOM      6  C6  PRL d          10.635  22.876  47.876  0.00  0.00     0.028 A 
ATOM      7  C7  PRL d           9.633  23.739  48.467  0.00  0.00    -0.057 A 
ATOM      8  C8  PRL d           8.872  23.338  49.487  0.00  0.00    -0.069 A 
ATOM      9  C9  PRL d           8.273  21.531  51.125  0.00  0.00    -0.059 A 
ATOM     10  N10 PRL d          10.179  19.913  49.985  0.00  0.00    -0.247 NA
ATOM     11  C11 PRL d           9.465  19.400  51.045  0.00  0.00     0.070 A 
ATOM     12  C12 PRL d           9.012  22.015  50.059  0.00  0.00    -0.006 A 
ATOM     13  C13 PRL d           8.468  20.258  51.637  0.00  0.00    -0.006 A 
ATOM     14  C14 PRL d          10.014  21.173  49.454  0.00  0.00     0.070 A 
ATOM     15  N16 PRL d          11.405  23.318  46.855  0.00  0.00    -0.399 N 
ATOM     16  H1  PRL d           6.998  20.302  53.255  0.00  0.00     0.085 H 
ATOM     17  H2  PRL d           7.499  18.129  54.106  0.00  0.00     0.086 H 
ATOM     18  H3  PRL d          10.491  17.530  51.065  0.00  0.00     0.090 H 
ATOM     19  H4  PRL d          11.533  20.939  47.976  0.00  0.00     0.090 H 
ATOM     20  H5  PRL d           9.498  24.739  48.070  0.00  0.00     0.086 H 
ATOM     21  H6  PRL d           8.133  24.018  49.896  0.00  0.00     0.085 H 
ATOM     22  H7  PRL d           7.518  22.167  51.573  0.00  0.00     0.086 H 
ATOM     23  H10 PRL d          12.115  22.697  46.440  0.00  0.00     0.156 HD
ATOM     24  H11 PRL d          11.280  24.274  46.492  0.00  0.00     0.156 HD
ENDROOT
BRANCH   3  25
ATOM     25  N15 PRL d           9.382  16.471  53.213  0.00  0.00    -0.399 N 
ATOM     26  H8  PRL d           9.496  15.634  52.624  0.00  0.00     0.156 HD
ATOM     27  H9  PRL d           9.511  16.405  54.233  0.00  0.00     0.156 HD
ENDBRANCH   3  25
TORSDOF 1
ENDMDL
MODEL 3
REMARK VINA RESULT:      -7.3      1.583      6.095
REMARK  1 active torsions:
REMARK  status: ('A' for Active; 'I' for Inactive)
REMARK    1  A    between atoms: C3_3  and  N15_15 
ROOT
ATOM      1  C1  PRL d           9.320  18.887  51.897  0.00  0.00    -0.069 A 
ATOM      2  C2  PRL d           8.464  18.803  52.915  0.00  0.00    -0.057 A 
ATOM      3  C3  PRL d           7.580  19.893  53.264  0.00  0.00     0.028 A 
ATOM      4  C4  PRL d           7.653  21.051  52.514  0.00  0.00    -0.029 A 
ATOM      5  C5  PRL d           9.308  23.616  48.819  0.00  0.00    -0.029 A 
ATOM      6  C6  PRL d          10.101  23.783  47.697  0.00  0.00     0.028 A 
ATOM      7  C7  PRL d          10.986  22.700  47.322  0.00  0.00    -0.057 A 
ATOM      8  C8  PRL d          11.050  21.568  48.025  0.00  0.00    -0.069 A 
ATOM      9  C9  PRL d          10.229  20.213  49.974  0.00  0.00    -0.059 A 
ATOM     10  N10 PRL d           8.559  22.283  50.664  0.00  0.00    -0.247 NA
ATOM     11  C11 PRL d           8.527  21.154  51.453  0.00  0.00     0.070 A 
ATOM     12  C12 PRL d          10.232  21.363  49.201  0.00  0.00    -0.006 A 
ATOM     13  C13 PRL d           9.408  20.073  51.081  0.00  0.00    -0.006 A 
ATOM     14  C14 PRL d           9.359  22.455  49.557  0.00  0.00     0.070 A 
ATOM     15  N16 PRL d          10.045  24.912  46.953  0.00  0.00    -0.399 N 
ATOM     16  H1  PRL d           9.964  18.044  51.677  0.00  0.00     0.085 H 
ATOM     17  H2  PRL d           8.430  17.891  53.499  0.00  0.00     0.086 H 
ATOM     18  H3  PRL d           7.013  21.891  52.763  0.00  0.00     0.090 H 
ATOM     19  H4  PRL d           8.636  24.412  49.121  0.00  0.00     0.090 H 
ATOM     20  H5  PRL d          11.615  22.812  46.446  0.00  0.00     0.086 H 
ATOM     21  H6  PRL d          11.730  20.785  47.708  0.00  0.00     0.085 H 
ATOM     22  H7  PRL d          10.890  19.397  49.704  0.00  0.00     0.086 H 
ATOM     23  H10 PRL d           9.412  25.678  47.227  0.00  0.00     0.156 HD
ATOM     24  H11 PRL d          10.634  25.006  46.113  0.00  0.00     0.156 HD
ENDROOT
BRANCH   3  25
ATOM     25  N15 PRL d           6.661  19.735  54.243  0.00  0.00    -0.399 N 
ATOM     26  H8  PRL d           6.481  20.501  54.909  0.00  0.00     0.156 HD
ATOM     27  H9  PRL d           6.141  18.850  54.324  0.00  0.00     0.156 HD
ENDBRANCH   3  25
TORSDOF 1
ENDMDL
MODEL 4
REMARK VINA RESULT:      -7.0      1.610      2.489
REMARK  1 active torsions:
REMARK  status: ('A' for Active; 'I' for Inactive)
REMARK    1  A    between atoms: C3_3  and  N15_15 
ROOT
ATOM      1  C1  PRL d          11.040  21.526  47.951  0.00  0.00    -0.069 A 
ATOM      2  C2  PRL d          11.054  22.677  47.280  0.00  0.00    -0.057 A 
ATOM      3  C3  PRL d          10.207  23.789  47.648  0.00  0.00     0.028 A 
ATOM      4  C4  PRL d           9.356  23.625  48.724  0.00  0.00    -0.029 A 
ATOM      5  C5  PRL d           7.654  21.133  52.448  0.00  0.00    -0.029 A 
ATOM      6  C6  PRL d           7.614  20.014  53.261  0.00  0.00     0.028 A 
ATOM      7  C7  PRL d           8.462  18.892  52.917  0.00  0.00    -0.057 A 
ATOM      8  C8  PRL d           9.265  18.917  51.852  0.00  0.00    -0.069 A 
ATOM      9  C9  PRL d          10.149  20.184  49.872  0.00  0.00    -0.059 A 
ATOM     10  N10 PRL d           8.529  22.299  50.546  0.00  0.00    -0.247 NA
ATOM     11  C11 PRL d           9.331  22.444  49.435  0.00  0.00     0.070 A 
ATOM     12  C12 PRL d           9.332  20.074  50.985  0.00  0.00    -0.006 A 
ATOM     13  C13 PRL d          10.178  21.328  49.091  0.00  0.00    -0.006 A 
ATOM     14  C14 PRL d           8.478  21.179  51.345  0.00  0.00     0.070 A 
ATOM     15  N16 PRL d           6.823  19.966  54.358  0.00  0.00    -0.399 N 
ATOM     16  H1  PRL d          11.692  20.720  47.634  0.00  0.00     0.085 H 
ATOM     17  H2  PRL d          11.721  22.782  46.431  0.00  0.00     0.086 H 
ATOM     18  H3  PRL d           8.697  24.437  49.014  0.00  0.00     0.090 H 
ATOM     19  H4  PRL d           7.029  21.987  52.684  0.00  0.00     0.090 H 
ATOM     20  H5  PRL d           8.443  18.006  53.542  0.00  0.00     0.086 H 
ATOM     21  H6  PRL d           9.881  18.052  51.632  0.00  0.00     0.085 H 
ATOM     22  H7  PRL d          10.786  19.349  49.603  0.00  0.00     0.086 H 
ATOM     23  H10 PRL d           6.222  20.768  54.596  0.00  0.00     0.156 HD
ATOM     24  H11 PRL d           6.822  19.126  54.956  0.00  0.00     0.156 HD
ENDROOT
BRANCH   3  25
ATOM     25  N15 PRL d          10.319  24.971  47.001  0.00  0.00    -0.399 N 
ATOM     26  H8  PRL d           9.682  25.747  47.233  0.00  0.00     0.156 HD
ATOM     27  H9  PRL d          11.040  25.097  46.277  0.00  0.00     0.156 HD
ENDBRANCH   3  25
TORSDOF 1
ENDMDL
MODEL 5
REMARK VINA RESULT:      -6.6      1.671      1.725
REMARK  1 active torsions:
REMARK  status: ('A' for Active; 'I' for Inactive)
REMARK    1  A    between atoms: C3_3  and  N15_15 
ROOT
ATOM      1  C1  PRL d           8.818  23.372  49.348  0.00  0.00    -0.069 A 
ATOM      2  C2  PRL d           9.858  23.593  48.545  0.00  0.00    -0.057 A 
ATOM      3  C3  PRL d          10.698  22.517  48.067  0.00  0.00     0.028 A 
ATOM      4  C4  PRL d          10.403  21.232  48.482  0.00  0.00    -0.029 A 
ATOM      5  C5  PRL d           7.646  18.033  50.748  0.00  0.00    -0.029 A 
ATOM      6  C6  PRL d           6.549  17.682  51.515  0.00  0.00     0.028 A 
ATOM      7  C7  PRL d           5.688  18.742  51.996  0.00  0.00    -0.057 A 
ATOM      8  C8  PRL d           5.927  20.025  51.718  0.00  0.00    -0.069 A 
ATOM      9  C9  PRL d           7.373  21.729  50.570  0.00  0.00    -0.059 A 
ATOM     10  N10 PRL d           8.993  19.699  49.673  0.00  0.00    -0.247 NA
ATOM     11  C11 PRL d           9.328  20.984  49.308  0.00  0.00     0.070 A 
ATOM     12  C12 PRL d           7.065  20.423  50.915  0.00  0.00    -0.006 A 
ATOM     13  C13 PRL d           8.470  22.042  49.784  0.00  0.00    -0.006 A 
ATOM     14  C14 PRL d           7.910  19.351  50.449  0.00  0.00     0.070 A 
ATOM     15  N16 PRL d           6.270  16.389  51.799  0.00  0.00    -0.399 N 
ATOM     16  H1  PRL d           8.220  24.212  49.682  0.00  0.00     0.085 H 
ATOM     17  H2  PRL d          10.080  24.609  48.240  0.00  0.00     0.086 H 
ATOM     18  H3  PRL d          11.025  20.408  48.152  0.00  0.00     0.090 H 
ATOM     19  H4  PRL d           8.307  17.258  50.376  0.00  0.00     0.090 H 
ATOM     20  H5  PRL d           4.823  18.486  52.599  0.00  0.00     0.086 H 
ATOM     21  H6  PRL d           5.256  20.785  52.101  0.00  0.00     0.085 H 
ATOM     22  H7  PRL d           6.736  22.530  50.927  0.00  0.00     0.086 H 
ATOM     23  H10 PRL d           6.888  15.641  51.453  0.00  0.00     0.156 HD
ATOM     24  H11 PRL d           5.438  16.152  52.359  0.00  0.00     0.156 HD
ENDROOT
BRANCH   3  25
ATOM     25  N15 PRL d          11.685  22.770  47.178  0.00  0.00    -0.399 N 
ATOM     26  H8  PRL d          12.478  23.370  47.446  0.00  0.00     0.156 HD
ATOM     27  H9  PRL d          11.644  22.362  46.233  0.00  0.00     0.156 HD
ENDBRANCH   3  25
TORSDOF 1
ENDMDL
MODEL 6
REMARK VINA RESULT:      -6.5      2.464      6.151
REMARK  1 active torsions:
REMARK  status: ('A' for Active; 'I' for Inactive)
REMARK    1  A    between atoms: C3_3  and  N15_15 
ROOT
ATOM      1  C1  PRL d           6.954  18.716  54.029  0.00  0.00    -0.069 A 
ATOM      2  C2  PRL d           6.324  19.172  55.111  0.00  0.00    -0.057 A 
ATOM      3  C3  PRL d           6.295  20.578  55.445  0.00  0.00     0.028 A 
ATOM      4  C4  PRL d           6.960  21.456  54.609  0.00  0.00    -0.029 A 
ATOM      5  C5  PRL d           9.421  22.481  50.626  0.00  0.00    -0.029 A 
ATOM      6  C6  PRL d          10.039  22.128  49.439  0.00  0.00     0.028 A 
ATOM      7  C7  PRL d          10.070  20.726  49.079  0.00  0.00    -0.057 A 
ATOM      8  C8  PRL d           9.525  19.787  49.855  0.00  0.00    -0.069 A 
ATOM      9  C9  PRL d           8.268  19.214  51.953  0.00  0.00    -0.059 A 
ATOM     10  N10 PRL d           8.223  21.881  52.613  0.00  0.00    -0.247 NA
ATOM     11  C11 PRL d           7.613  21.004  53.482  0.00  0.00     0.070 A 
ATOM     12  C12 PRL d           8.870  20.126  51.101  0.00  0.00    -0.006 A 
ATOM     13  C13 PRL d           7.641  19.606  53.125  0.00  0.00    -0.006 A 
ATOM     14  C14 PRL d           8.852  21.528  51.440  0.00  0.00     0.070 A 
ATOM     15  N16 PRL d          10.584  23.058  48.622  0.00  0.00    -0.399 N 
ATOM     16  H1  PRL d           6.950  17.652  53.823  0.00  0.00     0.085 H 
ATOM     17  H2  PRL d           5.818  18.467  55.760  0.00  0.00     0.086 H 
ATOM     18  H3  PRL d           6.969  22.515  54.843  0.00  0.00     0.090 H 
ATOM     19  H4  PRL d           9.383  23.525  50.918  0.00  0.00     0.090 H 
ATOM     20  H5  PRL d          10.550  20.430  48.153  0.00  0.00     0.086 H 
ATOM     21  H6  PRL d           9.575  18.749  49.547  0.00  0.00     0.085 H 
ATOM     22  H7  PRL d           8.288  18.161  51.695  0.00  0.00     0.086 H 
ATOM     23  H10 PRL d          10.557  24.054  48.885  0.00  0.00     0.156 HD
ATOM     24  H11 PRL d          11.025  22.771  47.736  0.00  0.00     0.156 HD
ENDROOT
BRANCH   3  25
ATOM     25  N15 PRL d           5.567  21.012  56.498  0.00  0.00    -0.399 N 
ATOM     26  H8  PRL d           4.538  21.013  56.447  0.00  0.00     0.156 HD
ATOM     27  H9  PRL d           6.040  21.341  57.352  0.00  0.00     0.156 HD
ENDBRANCH   3  25
TORSDOF 1
ENDMDL
MODEL 7
REMARK VINA RESULT:      -6.4      2.556      3.545
REMARK  1 active torsions:
REMARK  status: ('A' for Active; 'I' for Inactive)
REMARK    1  A    between atoms: C3_3  and  N15_15 
ROOT
ATOM      1  C1  PRL d           9.195  19.581  49.905  0.00  0.00    -0.069 A 
ATOM      2  C2  PRL d           9.883  20.407  49.118  0.00  0.00    -0.057 A 
ATOM      3  C3  PRL d          10.074  21.801  49.450  0.00  0.00     0.028 A 
ATOM      4  C4  PRL d           9.505  22.272  50.619  0.00  0.00    -0.029 A 
ATOM      5  C5  PRL d           7.139  21.643  54.739  0.00  0.00    -0.029 A 
ATOM      6  C6  PRL d           6.473  20.859  55.665  0.00  0.00     0.028 A 
ATOM      7  C7  PRL d           6.280  19.458  55.358  0.00  0.00    -0.057 A 
ATOM      8  C8  PRL d           6.722  18.919  54.221  0.00  0.00    -0.069 A 
ATOM      9  C9  PRL d           7.927  19.225  52.038  0.00  0.00    -0.059 A 
ATOM     10  N10 PRL d           8.279  21.881  52.644  0.00  0.00    -0.247 NA
ATOM     11  C11 PRL d           8.795  21.431  51.449  0.00  0.00     0.070 A 
ATOM     12  C12 PRL d           7.424  19.712  53.233  0.00  0.00    -0.006 A 
ATOM     13  C13 PRL d           8.605  20.034  51.142  0.00  0.00    -0.006 A 
ATOM     14  C14 PRL d           7.604  21.105  53.559  0.00  0.00     0.070 A 
ATOM     15  N16 PRL d           6.029  21.373  56.836  0.00  0.00    -0.399 N 
ATOM     16  H1  PRL d           9.077  18.545  49.611  0.00  0.00     0.085 H 
ATOM     17  H2  PRL d          10.313  20.022  48.200  0.00  0.00     0.086 H 
ATOM     18  H3  PRL d           9.618  23.317  50.886  0.00  0.00     0.090 H 
ATOM     19  H4  PRL d           7.297  22.696  54.945  0.00  0.00     0.090 H 
ATOM     20  H5  PRL d           5.761  18.828  56.072  0.00  0.00     0.086 H 
ATOM     21  H6  PRL d           6.553  17.865  54.032  0.00  0.00     0.085 H 
ATOM     22  H7  PRL d           7.785  18.177  51.796  0.00  0.00     0.086 H 
ATOM     23  H10 PRL d           6.171  22.371  57.047  0.00  0.00     0.156 HD
ATOM     24  H11 PRL d           5.550  20.765  57.516  0.00  0.00     0.156 HD
ENDROOT
BRANCH   3  25
ATOM     25  N15 PRL d          10.857  22.584  48.674  0.00  0.00    -0.399 N 
ATOM     26  H8  PRL d          11.575  22.157  48.071  0.00  0.00     0.156 HD
ATOM     27  H9  PRL d          10.736  23.607  48.685  0.00  0.00     0.156 HD
ENDBRANCH   3  25
TORSDOF 1
ENDMDL
MODEL 8
REMARK VINA RESULT:      -6.4      3.447      3.857
REMARK  1 active torsions:
REMARK  status: ('A' for Active; 'I' for Inactive)
REMARK    1  A    between atoms: C3_3  and  N15_15 
ROOT
ATOM      1  C1  PRL d           8.632  22.743  50.094  0.00  0.00    -0.069 A 
ATOM      2  C2  PRL d           9.862  22.515  49.635  0.00  0.00    -0.057 A 
ATOM      3  C3  PRL d          10.267  21.218  49.142  0.00  0.00     0.028 A 
ATOM      4  C4  PRL d           9.338  20.195  49.171  0.00  0.00    -0.029 A 
ATOM      5  C5  PRL d           4.919  18.497  49.922  0.00  0.00    -0.029 A 
ATOM      6  C6  PRL d           3.597  18.642  50.303  0.00  0.00     0.028 A 
ATOM      7  C7  PRL d           3.166  19.935  50.790  0.00  0.00    -0.057 A 
ATOM      8  C8  PRL d           4.004  20.970  50.876  0.00  0.00    -0.069 A 
ATOM      9  C9  PRL d           6.319  21.879  50.527  0.00  0.00    -0.059 A 
ATOM     10  N10 PRL d           7.112  19.414  49.609  0.00  0.00    -0.247 NA
ATOM     11  C11 PRL d           8.059  20.413  49.636  0.00  0.00     0.070 A 
ATOM     12  C12 PRL d           5.392  20.851  50.482  0.00  0.00    -0.006 A 
ATOM     13  C13 PRL d           7.631  21.704  50.119  0.00  0.00    -0.006 A 
ATOM     14  C14 PRL d           5.800  19.553  50.002  0.00  0.00     0.070 A 
ATOM     15  N16 PRL d           2.719  17.616  50.210  0.00  0.00    -0.399 N 
ATOM     16  H1  PRL d           8.377  23.732  50.456  0.00  0.00     0.085 H 
ATOM     17  H2  PRL d          10.580  23.327  49.631  0.00  0.00     0.086 H 
ATOM     18  H3  PRL d           9.618  19.207  48.822  0.00  0.00     0.090 H 
ATOM     19  H4  PRL d           5.267  17.539  49.554  0.00  0.00     0.090 H 
ATOM     20  H5  PRL d           2.133  20.068  51.093  0.00  0.00     0.086 H 
ATOM     21  H6  PRL d           3.637  21.920  51.249  0.00  0.00     0.085 H 
ATOM     22  H7  PRL d           6.008  22.851  50.893  0.00  0.00     0.086 H 
ATOM     23  H10 PRL d           3.033  16.699  49.863  0.00  0.00     0.156 HD
ATOM     24  H11 PRL d           1.735  17.753  50.486  0.00  0.00     0.156 HD
ENDROOT
BRANCH   3  25
ATOM     25  N15 PRL d          11.494  21.050  48.597  0.00  0.00    -0.399 N 
ATOM     26  H8  PRL d          11.615  20.434  47.781  0.00  0.00     0.156 HD
ATOM     27  H9  PRL d          12.307  21.539  48.998  0.00  0.00     0.156 HD
ENDBRANCH   3  25
TORSDOF 1
ENDMDL
MODEL 9
REMARK VINA RESULT:      -5.8      3.579      4.259
REMARK  1 active torsions:
REMARK  status: ('A' for Active; 'I' for Inactive)
REMARK    1  A    between atoms: C3_3  and  N15_15 
ROOT
ATOM      1  C1  PRL d           9.463  20.111  49.238  0.00  0.00    -0.069 A 
ATOM      2  C2  PRL d          10.268  21.165  49.108  0.00  0.00    -0.057 A 
ATOM      3  C3  PRL d           9.814  22.513  49.370  0.00  0.00     0.028 A 
ATOM      4  C4  PRL d           8.498  22.689  49.752  0.00  0.00    -0.029 A 
ATOM      5  C5  PRL d           4.187  21.022  51.020  0.00  0.00    -0.029 A 
ATOM      6  C6  PRL d           3.289  19.997  51.261  0.00  0.00     0.028 A 
ATOM      7  C7  PRL d           3.725  18.638  51.016  0.00  0.00    -0.057 A 
ATOM      8  C8  PRL d           4.953  18.363  50.571  0.00  0.00    -0.069 A 
ATOM      9  C9  PRL d           7.211  19.208  49.866  0.00  0.00    -0.059 A 
ATOM     10  N10 PRL d           6.357  21.777  50.337  0.00  0.00    -0.247 NA
ATOM     11  C11 PRL d           7.651  21.611  49.897  0.00  0.00     0.070 A 
ATOM     12  C12 PRL d           5.915  19.413  50.313  0.00  0.00    -0.006 A 
ATOM     13  C13 PRL d           8.089  20.258  49.654  0.00  0.00    -0.006 A 
ATOM     14  C14 PRL d           5.459  20.758  50.562  0.00  0.00     0.070 A 
ATOM     15  N16 PRL d           2.044  20.244  51.729  0.00  0.00    -0.399 N 
ATOM     16  H1  PRL d           9.849  19.121  49.027  0.00  0.00     0.085 H 
ATOM     17  H2  PRL d          11.294  21.007  48.796  0.00  0.00     0.086 H 
ATOM     18  H3  PRL d           8.125  23.691  49.939  0.00  0.00     0.090 H 
ATOM     19  H4  PRL d           3.885  22.049  51.196  0.00  0.00     0.090 H 
ATOM     20  H5  PRL d           3.036  17.822  51.198  0.00  0.00     0.086 H 
ATOM     21  H6  PRL d           5.235  17.330  50.399  0.00  0.00     0.085 H 
ATOM     22  H7  PRL d           7.547  18.195  49.676  0.00  0.00     0.086 H 
ATOM     23  H10 PRL d           1.741  21.214  51.901  0.00  0.00     0.156 HD
ATOM     24  H11 PRL d           1.399  19.462  51.915  0.00  0.00     0.156 HD
ENDROOT
BRANCH   3  25
ATOM     25  N15 PRL d          10.686  23.545  49.318  0.00  0.00    -0.399 N 
ATOM     26  H8  PRL d          11.253  23.699  48.472  0.00  0.00     0.156 HD
ATOM     27  H9  PRL d          10.783  24.178  50.125  0.00  0.00     0.156 HD
ENDBRANCH   3  25
TORSDOF 1
ENDMDL
MODEL 10
REMARK VINA RESULT:      -5.7      3.436      6.108
REMARK  1 active torsions:
REMARK  status: ('A' for Active; 'I' for Inactive)
REMARK    1  A    between atoms: C3_3  and  N15_15 
ROOT
ATOM      1  C1  PRL d           4.678  21.121  54.558  0.00  0.00    -0.069 A 
ATOM      2  C2  PRL d           4.821  21.623  55.784  0.00  0.00    -0.057 A 
ATOM      3  C3  PRL d           6.095  22.104  56.270  0.00  0.00     0.028 A 
ATOM      4  C4  PRL d           7.185  22.018  55.425  0.00  0.00    -0.029 A 
ATOM      5  C5  PRL d           9.201  21.058  51.184  0.00  0.00    -0.029 A 
ATOM      6  C6  PRL d           9.150  20.628  49.870  0.00  0.00     0.028 A 
ATOM      7  C7  PRL d           7.882  20.152  49.357  0.00  0.00    -0.057 A 
ATOM      8  C8  PRL d           6.784  20.120  50.115  0.00  0.00    -0.069 A 
ATOM      9  C9  PRL d           5.707  20.579  52.338  0.00  0.00    -0.059 A 
ATOM     10  N10 PRL d           8.125  21.476  53.285  0.00  0.00    -0.247 NA
ATOM     11  C11 PRL d           7.055  21.507  54.151  0.00  0.00     0.070 A 
ATOM     12  C12 PRL d           6.805  20.566  51.493  0.00  0.00    -0.006 A 
ATOM     13  C13 PRL d           5.790  21.034  53.643  0.00  0.00    -0.006 A 
ATOM     14  C14 PRL d           8.078  21.034  51.982  0.00  0.00     0.070 A 
ATOM     15  N16 PRL d          10.242  20.666  49.071  0.00  0.00    -0.399 N 
ATOM     16  H1  PRL d           3.703  20.770  54.240  0.00  0.00     0.085 H 
ATOM     17  H2  PRL d           3.957  21.672  56.436  0.00  0.00     0.086 H 
ATOM     18  H3  PRL d           8.157  22.356  55.769  0.00  0.00     0.090 H 
ATOM     19  H4  PRL d          10.138  21.420  51.592  0.00  0.00     0.090 H 
ATOM     20  H5  PRL d           7.823  19.811  48.330  0.00  0.00     0.086 H 
ATOM     21  H6  PRL d           5.857  19.753  49.690  0.00  0.00     0.085 H 
ATOM     22  H7  PRL d           4.754  20.222  51.965  0.00  0.00     0.086 H 
ATOM     23  H10 PRL d          11.140  21.006  49.444  0.00  0.00     0.156 HD
ATOM     24  H11 PRL d          10.175  20.354  48.092  0.00  0.00     0.156 HD
ENDROOT
BRANCH   3  25
ATOM     25  N15 PRL d           6.180  22.693  57.485  0.00  0.00    -0.399 N 
ATOM     26  H8  PRL d           7.060  23.138  57.781  0.00  0.00     0.156 HD
ATOM     27  H9  PRL d           5.364  22.696  58.114  0.00  0.00     0.156 HD
ENDBRANCH   3  25
TORSDOF 1
ENDMDL
MODEL 11
REMARK VINA RESULT:      -5.7      1.725      5.785
REMARK  1 active torsions:
REMARK  status: ('A' for Active; 'I' for Inactive)
REMARK    1  A    between atoms: C3_3  and  N15_15 
ROOT
ATOM      1  C1  PRL d           8.937  16.677  52.787  0.00  0.00    -0.069 A 
ATOM      2  C2  PRL d           9.365  15.455  52.472  0.00  0.00    -0.057 A 
ATOM      3  C3  PRL d          10.111  15.193  51.262  0.00  0.00     0.028 A 
ATOM      4  C4  PRL d          10.364  16.256  50.415  0.00  0.00    -0.029 A 
ATOM      5  C5  PRL d          10.264  20.918  49.309  0.00  0.00    -0.029 A 
ATOM      6  C6  PRL d           9.935  22.236  49.574  0.00  0.00     0.028 A 
ATOM      7  C7  PRL d           9.197  22.523  50.786  0.00  0.00    -0.057 A 
ATOM      8  C8  PRL d           8.835  21.560  51.635  0.00  0.00    -0.069 A 
ATOM      9  C9  PRL d           8.840  19.118  52.224  0.00  0.00    -0.059 A 
ATOM     10  N10 PRL d          10.239  18.600  49.916  0.00  0.00    -0.247 NA
ATOM     11  C11 PRL d           9.935  17.528  50.727  0.00  0.00     0.070 A 
ATOM     12  C12 PRL d           9.166  20.172  51.386  0.00  0.00    -0.006 A 
ATOM     13  C13 PRL d           9.201  17.812  51.936  0.00  0.00    -0.006 A 
ATOM     14  C14 PRL d           9.899  19.909  50.173  0.00  0.00     0.070 A 
ATOM     15  N16 PRL d          10.305  23.237  48.742  0.00  0.00    -0.399 N 
ATOM     16  H1  PRL d           8.379  16.822  53.704  0.00  0.00     0.085 H 
ATOM     17  H2  PRL d           9.146  14.633  53.144  0.00  0.00     0.086 H 
ATOM     18  H3  PRL d          10.908  16.086  49.492  0.00  0.00     0.090 H 
ATOM     19  H4  PRL d          10.816  20.676  48.408  0.00  0.00     0.090 H 
ATOM     20  H5  PRL d           8.931  23.550  51.011  0.00  0.00     0.086 H 
ATOM     21  H6  PRL d           8.281  21.821  52.529  0.00  0.00     0.085 H 
ATOM     22  H7  PRL d           8.285  19.321  53.133  0.00  0.00     0.086 H 
ATOM     23  H10 PRL d          10.830  23.024  47.881  0.00  0.00     0.156 HD
ATOM     24  H11 PRL d          10.062  24.212  48.969  0.00  0.00     0.156 HD
ENDROOT
BRANCH   3  25
ATOM     25  N15 PRL d          10.609  13.959  51.024  0.00  0.00    -0.399 N 
ATOM     26  H8  PRL d           9.972  13.152  50.954  0.00  0.00     0.156 HD
ATOM     27  H9  PRL d          11.624  13.824  50.914  0.00  0.00     0.156 HD
ENDBRANCH   3  25
TORSDOF 1
ENDMDL
MODEL 12
REMARK VINA RESULT:      -5.6      4.229      5.102
REMARK  1 active torsions:
REMARK  status: ('A' for Active; 'I' for Inactive)
REMARK    1  A    between atoms: C3_3  and  N15_15 
ROOT
ATOM      1  C1  PRL d           7.835  20.195  52.425  0.00  0.00    -0.069 A 
ATOM      2  C2  PRL d           8.644  21.246  52.304  0.00  0.00    -0.057 A 
ATOM      3  C3  PRL d           8.698  22.036  51.094  0.00  0.00     0.028 A 
ATOM      4  C4  PRL d           7.886  21.662  50.040  0.00  0.00    -0.029 A 
ATOM      5  C5  PRL d           4.439  18.962  48.090  0.00  0.00    -0.029 A 
ATOM      6  C6  PRL d           3.508  17.939  48.135  0.00  0.00     0.028 A 
ATOM      7  C7  PRL d           3.429  17.142  49.340  0.00  0.00    -0.057 A 
ATOM      8  C8  PRL d           4.222  17.370  50.389  0.00  0.00    -0.069 A 
ATOM      9  C9  PRL d           6.052  18.745  51.424  0.00  0.00    -0.059 A 
ATOM     10  N10 PRL d           6.182  20.242  49.124  0.00  0.00    -0.247 NA
ATOM     11  C11 PRL d           7.038  20.581  50.149  0.00  0.00     0.070 A 
ATOM     12  C12 PRL d           5.204  18.434  50.374  0.00  0.00    -0.006 A 
ATOM     13  C13 PRL d           6.960  19.788  51.352  0.00  0.00    -0.006 A 
ATOM     14  C14 PRL d           5.267  19.214  49.162  0.00  0.00     0.070 A 
ATOM     15  N16 PRL d           2.677  17.695  47.095  0.00  0.00    -0.399 N 
ATOM     16  H1  PRL d           7.834  19.633  53.351  0.00  0.00     0.085 H 
ATOM     17  H2  PRL d           9.282  21.518  53.138  0.00  0.00     0.086 H 
ATOM     18  H3  PRL d           7.917  22.226  49.114  0.00  0.00     0.090 H 
ATOM     19  H4  PRL d           4.518  19.574  47.199  0.00  0.00     0.090 H 
ATOM     20  H5  PRL d           2.706  16.336  49.394  0.00  0.00     0.086 H 
ATOM     21  H6  PRL d           4.130  16.746  51.270  0.00  0.00     0.085 H 
ATOM     22  H7  PRL d           6.004  18.152  52.331  0.00  0.00     0.086 H 
ATOM     23  H10 PRL d           2.740  18.267  46.240  0.00  0.00     0.156 HD
ATOM     24  H11 PRL d           1.982  16.937  47.158  0.00  0.00     0.156 HD
ENDROOT
BRANCH   3  25
ATOM     25  N15 PRL d           9.462  23.151  51.043  0.00  0.00    -0.399 N 
ATOM     26  H8  PRL d           9.148  24.012  51.513  0.00  0.00     0.156 HD
ATOM     27  H9  PRL d          10.358  23.139  50.535  0.00  0.00     0.156 HD
ENDBRANCH   3  25
TORSDOF 1
ENDMDL
MODEL 13
REMARK VINA RESULT:      -5.6      3.418      5.076
REMARK  1 active torsions:
REMARK  status: ('A' for Active; 'I' for Inactive)
REMARK    1  A    between atoms: C3_3  and  N15_15 
ROOT
ATOM      1  C1  PRL d           5.941  18.372  50.706  0.00  0.00    -0.069 A 
ATOM      2  C2  PRL d           6.857  17.964  49.830  0.00  0.00    -0.057 A 
ATOM      3  C3  PRL d           8.224  18.433  49.875  0.00  0.00     0.028 A 
ATOM      4  C4  PRL d           8.562  19.345  50.858  0.00  0.00    -0.029 A 
ATOM      5  C5  PRL d           7.575  21.924  54.775  0.00  0.00    -0.029 A 
ATOM      6  C6  PRL d           6.727  22.355  55.780  0.00  0.00     0.028 A 
ATOM      7  C7  PRL d           5.356  21.888  55.760  0.00  0.00    -0.057 A 
ATOM      8  C8  PRL d           4.905  21.067  54.810  0.00  0.00    -0.069 A 
ATOM      9  C9  PRL d           5.383  19.733  52.736  0.00  0.00    -0.059 A 
ATOM     10  N10 PRL d           7.978  20.634  52.795  0.00  0.00    -0.247 NA
ATOM     11  C11 PRL d           7.629  19.775  51.777  0.00  0.00     0.070 A 
ATOM     12  C12 PRL d           5.770  20.597  53.748  0.00  0.00    -0.006 A 
ATOM     13  C13 PRL d           6.265  19.307  51.756  0.00  0.00    -0.006 A 
ATOM     14  C14 PRL d           7.129  21.075  53.786  0.00  0.00     0.070 A 
ATOM     15  N16 PRL d           7.159  23.173  56.767  0.00  0.00    -0.399 N 
ATOM     16  H1  PRL d           4.928  17.994  50.628  0.00  0.00     0.085 H 
ATOM     17  H2  PRL d           6.570  17.257  49.059  0.00  0.00     0.086 H 
ATOM     18  H3  PRL d           9.576  19.727  50.907  0.00  0.00     0.090 H 
ATOM     19  H4  PRL d           8.607  22.258  54.767  0.00  0.00     0.090 H 
ATOM     20  H5  PRL d           4.676  22.216  56.539  0.00  0.00     0.086 H 
ATOM     21  H6  PRL d           3.871  20.746  54.834  0.00  0.00     0.085 H 
ATOM     22  H7  PRL d           4.358  19.380  52.710  0.00  0.00     0.086 H 
ATOM     23  H10 PRL d           8.136  23.500  56.774  0.00  0.00     0.156 HD
ATOM     24  H11 PRL d           6.512  23.468  57.513  0.00  0.00     0.156 HD
ENDROOT
BRANCH   3  25
ATOM     25  N15 PRL d           9.147  17.924  49.028  0.00  0.00    -0.399 N 
ATOM     26  H8  PRL d           9.970  18.484  48.767  0.00  0.00     0.156 HD
ATOM     27  H9  PRL d           9.026  16.975  48.644  0.00  0.00     0.156 HD
ENDBRANCH   3  25
TORSDOF 1
ENDMDL
MODEL 14
REMARK VINA RESULT:      -5.6      4.783      6.593
REMARK  1 active torsions:
REMARK  status: ('A' for Active; 'I' for Inactive)
REMARK    1  A    between atoms: C3_3  and  N15_15 
ROOT
ATOM      1  C1  PRL d           4.118  21.154  54.317  0.00  0.00    -0.069 A 
ATOM      2  C2  PRL d           5.137  21.546  55.081  0.00  0.00    -0.057 A 
ATOM      3  C3  PRL d           6.503  21.524  54.607  0.00  0.00     0.028 A 
ATOM      4  C4  PRL d           6.735  21.065  53.324  0.00  0.00    -0.029 A 
ATOM      5  C5  PRL d           5.253  19.524  49.035  0.00  0.00    -0.029 A 
ATOM      6  C6  PRL d           4.267  19.167  48.132  0.00  0.00     0.028 A 
ATOM      7  C7  PRL d           2.890  19.192  48.582  0.00  0.00    -0.057 A 
ATOM      8  C8  PRL d           2.563  19.545  49.826  0.00  0.00    -0.069 A 
ATOM      9  C9  PRL d           3.312  20.320  52.095  0.00  0.00    -0.059 A 
ATOM     10  N10 PRL d           5.915  20.262  51.217  0.00  0.00    -0.247 NA
ATOM     11  C11 PRL d           5.694  20.661  52.517  0.00  0.00     0.070 A 
ATOM     12  C12 PRL d           3.571  19.926  50.792  0.00  0.00    -0.006 A 
ATOM     13  C13 PRL d           4.323  20.688  52.967  0.00  0.00    -0.006 A 
ATOM     14  C14 PRL d           4.935  19.892  50.323  0.00  0.00     0.070 A 
ATOM     15  N16 PRL d           4.566  18.822  46.858  0.00  0.00    -0.399 N 
ATOM     16  H1  PRL d           3.112  21.186  54.718  0.00  0.00     0.085 H 
ATOM     17  H2  PRL d           4.935  21.892  56.088  0.00  0.00     0.086 H 
ATOM     18  H3  PRL d           7.751  21.023  52.947  0.00  0.00     0.090 H 
ATOM     19  H4  PRL d           6.291  19.514  48.723  0.00  0.00     0.090 H 
ATOM     20  H5  PRL d           2.104  18.915  47.888  0.00  0.00     0.086 H 
ATOM     21  H6  PRL d           1.519  19.547  50.119  0.00  0.00     0.085 H 
ATOM     22  H7  PRL d           2.285  20.339  52.443  0.00  0.00     0.086 H 
ATOM     23  H10 PRL d           5.548  18.806  46.546  0.00  0.00     0.156 HD
ATOM     24  H11 PRL d           3.813  18.575  46.201  0.00  0.00     0.156 HD
ENDROOT
BRANCH   3  25
ATOM     25  N15 PRL d           7.497  22.019  55.378  0.00  0.00    -0.399 N 
ATOM     26  H8  PRL d           7.490  23.011  55.655  0.00  0.00     0.156 HD
ATOM     27  H9  PRL d           8.263  21.404  55.689  0.00  0.00     0.156 HD
ENDBRANCH   3  25
TORSDOF 1
ENDMDL
MODEL 15
REMARK VINA RESULT:      -5.6      3.673      6.112
REMARK  1 active torsions:
REMARK  status: ('A' for Active; 'I' for Inactive)
REMARK    1  A    between atoms: C3_3  and  N15_15 
ROOT
ATOM      1  C1  PRL d           5.322  17.673  50.042  0.00  0.00    -0.069 A 
ATOM      2  C2  PRL d           4.009  17.814  50.215  0.00  0.00    -0.057 A 
ATOM      3  C3  PRL d           3.391  19.112  50.369  0.00  0.00     0.028 A 
ATOM      4  C4  PRL d           4.210  20.225  50.347  0.00  0.00    -0.029 A 
ATOM      5  C5  PRL d           8.465  22.352  49.759  0.00  0.00    -0.029 A 
ATOM      6  C6  PRL d           9.826  22.327  49.509  0.00  0.00     0.028 A 
ATOM      7  C7  PRL d          10.464  21.038  49.340  0.00  0.00    -0.057 A 
ATOM      8  C8  PRL d           9.777  19.897  49.420  0.00  0.00    -0.069 A 
ATOM      9  C9  PRL d           7.568  18.752  49.760  0.00  0.00    -0.059 A 
ATOM     10  N10 PRL d           6.382  21.210  50.078  0.00  0.00    -0.247 NA
ATOM     11  C11 PRL d           5.571  20.100  50.163  0.00  0.00     0.070 A 
ATOM     12  C12 PRL d           8.352  19.891  49.678  0.00  0.00    -0.006 A 
ATOM     13  C13 PRL d           6.204  18.815  49.994  0.00  0.00    -0.006 A 
ATOM     14  C14 PRL d           7.739  21.185  49.844  0.00  0.00     0.070 A 
ATOM     15  N16 PRL d          10.546  23.468  49.403  0.00  0.00    -0.399 N 
ATOM     16  H1  PRL d           5.738  16.679  49.934  0.00  0.00     0.085 H 
ATOM     17  H2  PRL d           3.384  16.928  50.241  0.00  0.00     0.086 H 
ATOM     18  H3  PRL d           3.777  21.211  50.477  0.00  0.00     0.090 H 
ATOM     19  H4  PRL d           7.963  23.304  49.889  0.00  0.00     0.090 H 
ATOM     20  H5  PRL d          11.530  20.999  49.143  0.00  0.00     0.086 H 
ATOM     21  H6  PRL d          10.297  18.955  49.289  0.00  0.00     0.085 H 
ATOM     22  H7  PRL d           8.035  17.781  49.638  0.00  0.00     0.086 H 
ATOM     23  H10 PRL d          10.084  24.381  49.525  0.00  0.00     0.156 HD
ATOM     24  H11 PRL d          11.555  23.424  49.201  0.00  0.00     0.156 HD
ENDROOT
BRANCH   3  25
ATOM     25  N15 PRL d           2.045  19.220  50.448  0.00  0.00    -0.399 N 
ATOM     26  H8  PRL d           1.466  19.059  49.612  0.00  0.00     0.156 HD
ATOM     27  H9  PRL d           1.599  19.462  51.345  0.00  0.00     0.156 HD
ENDBRANCH   3  25
TORSDOF 1
ENDMDL
MODEL 16
REMARK VINA RESULT:      -5.5      1.716      2.786
REMARK  1 active torsions:
REMARK  status: ('A' for Active; 'I' for Inactive)
REMARK    1  A    between atoms: C3_3  and  N15_15 
ROOT
ATOM      1  C1  PRL d          10.396  21.234  49.410  0.00  0.00    -0.069 A 
ATOM      2  C2  PRL d           9.825  22.427  49.255  0.00  0.00    -0.057 A 
ATOM      3  C3  PRL d           8.610  22.792  49.950  0.00  0.00     0.028 A 
ATOM      4  C4  PRL d           8.036  21.852  50.785  0.00  0.00    -0.029 A 
ATOM      5  C5  PRL d           8.018  17.618  53.032  0.00  0.00    -0.029 A 
ATOM      6  C6  PRL d           8.567  16.382  53.326  0.00  0.00     0.028 A 
ATOM      7  C7  PRL d           9.789  16.001  52.650  0.00  0.00    -0.057 A 
ATOM      8  C8  PRL d          10.384  16.804  51.766  0.00  0.00    -0.069 A 
ATOM      9  C9  PRL d          10.401  18.999  50.546  0.00  0.00    -0.059 A 
ATOM     10  N10 PRL d           8.081  19.698  51.842  0.00  0.00    -0.247 NA
ATOM     11  C11 PRL d           8.616  20.614  50.963  0.00  0.00     0.070 A 
ATOM     12  C12 PRL d           9.836  18.104  51.439  0.00  0.00    -0.006 A 
ATOM     13  C13 PRL d           9.834  20.237  50.289  0.00  0.00    -0.006 A 
ATOM     14  C14 PRL d           8.618  18.462  52.123  0.00  0.00     0.070 A 
ATOM     15  N16 PRL d           7.997  15.554  54.232  0.00  0.00    -0.399 N 
ATOM     16  H1  PRL d          11.304  21.007  48.865  0.00  0.00     0.085 H 
ATOM     17  H2  PRL d          10.284  23.147  48.587  0.00  0.00     0.086 H 
ATOM     18  H3  PRL d           7.116  22.091  51.307  0.00  0.00     0.090 H 
ATOM     19  H4  PRL d           7.104  17.928  53.525  0.00  0.00     0.090 H 
ATOM     20  H5  PRL d          10.233  15.036  52.868  0.00  0.00     0.086 H 
ATOM     21  H6  PRL d          11.296  16.475  51.282  0.00  0.00     0.085 H 
ATOM     22  H7  PRL d          11.314  18.723  50.031  0.00  0.00     0.086 H 
ATOM     23  H10 PRL d           7.127  15.833  54.709  0.00  0.00     0.156 HD
ATOM     24  H11 PRL d           8.432  14.645  54.445  0.00  0.00     0.156 HD
ENDROOT
BRANCH   3  25
ATOM     25  N15 PRL d           8.113  24.044  49.839  0.00  0.00    -0.399 N 
ATOM     26  H8  PRL d           8.379  24.766  50.523  0.00  0.00     0.156 HD
ATOM     27  H9  PRL d           7.468  24.277  49.069  0.00  0.00     0.156 HD
ENDBRANCH   3  25
TORSDOF 1
ENDMDL
MODEL 17
REMARK VINA RESULT:      -5.5      1.891      2.852
REMARK  1 active torsions:
REMARK  status: ('A' for Active; 'I' for Inactive)
REMARK    1  A    between atoms: C3_3  and  N15_15 
ROOT
ATOM      1  C1  PRL d           6.811  20.701  50.948  0.00  0.00    -0.069 A 
ATOM      2  C2  PRL d           7.118  21.863  50.374  0.00  0.00    -0.057 A 
ATOM      3  C3  PRL d           8.487  22.259  50.128  0.00  0.00     0.028 A 
ATOM      4  C4  PRL d           9.491  21.394  50.521  0.00  0.00    -0.029 A 
ATOM      5  C5  PRL d          11.044  17.214  52.278  0.00  0.00    -0.029 A 
ATOM      6  C6  PRL d          10.838  15.953  52.809  0.00  0.00     0.028 A 
ATOM      7  C7  PRL d           9.475  15.532  53.055  0.00  0.00    -0.057 A 
ATOM      8  C8  PRL d           8.434  16.322  52.783  0.00  0.00    -0.069 A 
ATOM      9  C9  PRL d           7.591  18.517  51.901  0.00  0.00    -0.059 A 
ATOM     10  N10 PRL d          10.188  19.293  51.447  0.00  0.00    -0.247 NA
ATOM     11  C11 PRL d           9.193  20.184  51.110  0.00  0.00     0.070 A 
ATOM     12  C12 PRL d           8.618  17.645  52.224  0.00  0.00    -0.006 A 
ATOM     13  C13 PRL d           7.833  19.766  51.353  0.00  0.00    -0.006 A 
ATOM     14  C14 PRL d           9.983  18.044  51.990  0.00  0.00     0.070 A 
ATOM     15  N16 PRL d          11.872  15.122  53.078  0.00  0.00    -0.399 N 
ATOM     16  H1  PRL d           5.770  20.451  51.115  0.00  0.00     0.085 H 
ATOM     17  H2  PRL d           6.317  22.533  50.083  0.00  0.00     0.086 H 
ATOM     18  H3  PRL d          10.527  21.671  50.363  0.00  0.00     0.090 H 
ATOM     19  H4  PRL d          12.056  17.553  52.084  0.00  0.00     0.090 H 
ATOM     20  H5  PRL d           9.294  14.547  53.471  0.00  0.00     0.086 H 
ATOM     21  H6  PRL d           7.431  15.965  52.985  0.00  0.00     0.085 H 
ATOM     22  H7  PRL d           6.566  18.213  52.083  0.00  0.00     0.086 H 
ATOM     23  H10 PRL d          12.839  15.429  52.900  0.00  0.00     0.156 HD
ATOM     24  H11 PRL d          11.692  14.182  53.459  0.00  0.00     0.156 HD
ENDROOT
BRANCH   3  25
ATOM     25  N15 PRL d           8.754  23.403  49.458  0.00  0.00    -0.399 N 
ATOM     26  H8  PRL d           9.675  23.539  49.018  0.00  0.00     0.156 HD
ATOM     27  H9  PRL d           8.036  24.139  49.388  0.00  0.00     0.156 HD
ENDBRANCH   3  25
TORSDOF 1
ENDMDL
MODEL 18
REMARK VINA RESULT:      -5.5      2.783      3.485
REMARK  1 active torsions:
REMARK  status: ('A' for Active; 'I' for Inactive)
REMARK    1  A    between atoms: C3_3  and  N15_15 
ROOT
ATOM      1  C1  PRL d          10.031  21.056  49.275  0.00  0.00    -0.069 A 
ATOM      2  C2  PRL d           9.677  22.337  49.372  0.00  0.00    -0.057 A 
ATOM      3  C3  PRL d           8.353  22.736  49.797  0.00  0.00     0.028 A 
ATOM      4  C4  PRL d           7.441  21.740  50.093  0.00  0.00    -0.029 A 
ATOM      5  C5  PRL d           6.233  17.147  50.739  0.00  0.00    -0.029 A 
ATOM      6  C6  PRL d           6.517  15.793  50.748  0.00  0.00     0.028 A 
ATOM      7  C7  PRL d           7.839  15.371  50.336  0.00  0.00    -0.057 A 
ATOM      8  C8  PRL d           8.771  16.247  49.956  0.00  0.00    -0.069 A 
ATOM      9  C9  PRL d           9.422  18.643  49.574  0.00  0.00    -0.059 A 
ATOM     10  N10 PRL d           6.905  19.416  50.358  0.00  0.00    -0.247 NA
ATOM     11  C11 PRL d           7.791  20.410  50.004  0.00  0.00     0.070 A 
ATOM     12  C12 PRL d           8.506  17.671  49.939  0.00  0.00    -0.006 A 
ATOM     13  C13 PRL d           9.110  19.992  49.595  0.00  0.00    -0.006 A 
ATOM     14  C14 PRL d           7.182  18.068  50.351  0.00  0.00     0.070 A 
ATOM     15  N16 PRL d           5.599  14.882  51.146  0.00  0.00    -0.399 N 
ATOM     16  H1  PRL d          11.034  20.808  48.948  0.00  0.00     0.085 H 
ATOM     17  H2  PRL d          10.402  23.103  49.124  0.00  0.00     0.086 H 
ATOM     18  H3  PRL d           6.436  22.009  50.399  0.00  0.00     0.090 H 
ATOM     19  H4  PRL d           5.250  17.489  51.043  0.00  0.00     0.090 H 
ATOM     20  H5  PRL d           8.079  14.314  50.336  0.00  0.00     0.086 H 
ATOM     21  H6  PRL d           9.747  15.886  49.654  0.00  0.00     0.085 H 
ATOM     22  H7  PRL d          10.415  18.338  49.261  0.00  0.00     0.086 H 
ATOM     23  H10 PRL d           4.660  15.190  51.437  0.00  0.00     0.156 HD
ATOM     24  H11 PRL d           5.839  13.880  51.158  0.00  0.00     0.156 HD
ENDROOT
BRANCH   3  25
ATOM     25  N15 PRL d           8.062  24.044  49.973  0.00  0.00    -0.399 N 
ATOM     26  H8  PRL d           8.544  24.585  50.706  0.00  0.00     0.156 HD
ATOM     27  H9  PRL d           7.358  24.501  49.376  0.00  0.00     0.156 HD
ENDBRANCH   3  25
TORSDOF 1
ENDMDL
MODEL 19
REMARK VINA RESULT:      -5.4      2.922      4.323
REMARK  1 active torsions:
REMARK  status: ('A' for Active; 'I' for Inactive)
REMARK    1  A    between atoms: C3_3  and  N15_15 
ROOT
ATOM      1  C1  PRL d           9.128  21.466  51.146  0.00  0.00    -0.069 A 
ATOM      2  C2  PRL d           9.454  20.685  50.117  0.00  0.00    -0.057 A 
ATOM      3  C3  PRL d           9.108  19.282  50.080  0.00  0.00     0.028 A 
ATOM      4  C4  PRL d           8.430  18.754  51.162  0.00  0.00    -0.029 A 
ATOM      5  C5  PRL d           6.169  19.172  55.368  0.00  0.00    -0.029 A 
ATOM      6  C6  PRL d           5.714  19.906  56.450  0.00  0.00     0.028 A 
ATOM      7  C7  PRL d           6.040  21.315  56.502  0.00  0.00    -0.057 A 
ATOM      8  C8  PRL d           6.757  21.908  55.546  0.00  0.00    -0.069 A 
ATOM      9  C9  PRL d           7.980  21.713  53.360  0.00  0.00    -0.059 A 
ATOM     10  N10 PRL d           7.349  19.039  53.286  0.00  0.00    -0.247 NA
ATOM     11  C11 PRL d           8.079  19.547  52.234  0.00  0.00     0.070 A 
ATOM     12  C12 PRL d           7.245  21.168  54.400  0.00  0.00    -0.006 A 
ATOM     13  C13 PRL d           8.403  20.952  52.283  0.00  0.00    -0.006 A 
ATOM     14  C14 PRL d           6.910  19.766  54.370  0.00  0.00     0.070 A 
ATOM     15  N16 PRL d           4.969  19.337  57.426  0.00  0.00    -0.399 N 
ATOM     16  H1  PRL d           9.413  22.511  51.128  0.00  0.00     0.085 H 
ATOM     17  H2  PRL d           9.996  21.115  49.282  0.00  0.00     0.086 H 
ATOM     18  H3  PRL d           8.171  17.701  51.170  0.00  0.00     0.090 H 
ATOM     19  H4  PRL d           5.938  18.115  55.304  0.00  0.00     0.090 H 
ATOM     20  H5  PRL d           5.692  21.906  57.342  0.00  0.00     0.086 H 
ATOM     21  H6  PRL d           6.979  22.966  55.628  0.00  0.00     0.085 H 
ATOM     22  H7  PRL d           8.233  22.767  53.391  0.00  0.00     0.086 H 
ATOM     23  H10 PRL d           4.742  18.333  57.381  0.00  0.00     0.156 HD
ATOM     24  H11 PRL d           4.630  19.907  58.213  0.00  0.00     0.156 HD
ENDROOT
BRANCH   3  25
ATOM     25  N15 PRL d           9.373  18.545  48.977  0.00  0.00    -0.399 N 
ATOM     26  H8  PRL d           8.731  17.790  48.696  0.00  0.00     0.156 HD
ATOM     27  H9  PRL d          10.216  18.738  48.418  0.00  0.00     0.156 HD
ENDBRANCH   3  25
TORSDOF 1
ENDMDL
MODEL 20
REMARK VINA RESULT:      -5.4      4.997      6.902
REMARK  1 active torsions:
REMARK  status: ('A' for Active; 'I' for Inactive)
REMARK    1  A    between atoms: C3_3  and  N15_15 
ROOT
ATOM      1  C1  PRL d           7.483  21.497  54.015  0.00  0.00    -0.069 A 
ATOM      2  C2  PRL d           7.280  21.779  55.301  0.00  0.00    -0.057 A 
ATOM      3  C3  PRL d           5.961  21.748  55.893  0.00  0.00     0.028 A 
ATOM      4  C4  PRL d           4.893  21.427  55.077  0.00  0.00    -0.029 A 
ATOM      5  C5  PRL d           3.021  19.992  50.904  0.00  0.00    -0.029 A 
ATOM      6  C6  PRL d           3.127  19.608  49.579  0.00  0.00     0.028 A 
ATOM      7  C7  PRL d           4.439  19.621  48.968  0.00  0.00    -0.057 A 
ATOM      8  C8  PRL d           5.527  19.990  49.646  0.00  0.00    -0.069 A 
ATOM      9  C9  PRL d           6.533  20.777  51.810  0.00  0.00    -0.059 A 
ATOM     10  N10 PRL d           4.030  20.744  52.944  0.00  0.00    -0.247 NA
ATOM     11  C11 PRL d           5.084  21.126  53.745  0.00  0.00     0.070 A 
ATOM     12  C12 PRL d           5.450  20.395  51.034  0.00  0.00    -0.006 A 
ATOM     13  C13 PRL d           6.393  21.138  53.139  0.00  0.00    -0.006 A 
ATOM     14  C14 PRL d           4.133  20.376  51.621  0.00  0.00     0.070 A 
ATOM     15  N16 PRL d           2.044  19.210  48.871  0.00  0.00    -0.399 N 
ATOM     16  H1  PRL d           8.490  21.537  53.617  0.00  0.00     0.085 H 
ATOM     17  H2  PRL d           8.129  22.041  55.922  0.00  0.00     0.086 H 
ATOM     18  H3  PRL d           3.890  21.411  55.490  0.00  0.00     0.090 H 
ATOM     19  H4  PRL d           2.050  19.991  51.385  0.00  0.00     0.090 H 
ATOM     20  H5  PRL d           4.541  19.323  47.931  0.00  0.00     0.086 H 
ATOM     21  H6  PRL d           6.490  19.987  49.147  0.00  0.00     0.085 H 
ATOM     22  H7  PRL d           7.520  20.793  51.362  0.00  0.00     0.086 H 
ATOM     23  H10 PRL d           1.114  19.204  49.313  0.00  0.00     0.156 HD
ATOM     24  H11 PRL d           2.151  18.914  47.890  0.00  0.00     0.156 HD
ENDROOT
BRANCH   3  25
ATOM     25  N15 PRL d           5.808  21.948  57.221  0.00  0.00    -0.399 N 
ATOM     26  H8  PRL d           4.963  21.605  57.700  0.00  0.00     0.156 HD
ATOM     27  H9  PRL d           6.535  22.445  57.755  0.00  0.00     0.156 HD
ENDBRANCH   3  25
TORSDOF 1
ENDMDL
